<?xml version="1.0" encoding="UTF-8"?>
<routes xmlns:xsi="http://www.w3.org/2001/XMLSchema-instance" xsi:noNamespaceSchemaLocation="http://sumo.dlr.de/xsd/routes_file.xsd">
	
	<vType id="passenger" vClass="passenger">
	    <!-- <param key="parking.distance.weight" value="1"/> -->
    </vType>

    <vType id="taxi" vClass="taxi">
        <!-- <param key="parking.distance.weight" value="1"/> -->
    </vType>

    <vType id="truck" vClass="truck">
        <!-- <param key="parking.distance.weight" value="1"/> -->
    </vType>
	
    <route id="route1" edges="a b">
		<stop index="0" parkingArea="ParkAreaA" duration="20" parking="true"/>
		<!-- <stop index="3" parkingArea="ParkAreaA3" duration="20" parking="true"/> -->
    </route>

    <route id="route2" edges="a b">
        <stop index="0" parkingArea="ParkAreaA" duration="50" parking="true"/>
        <!-- <stop index="3" parkingArea="ParkAreaA3" duration="20" parking="true"/> -->
    </route>

    <route id="route3" edges="a b">
        <stop index="0" parkingArea="ParkAreaA1" duration="10" parking="true"/>
        <!-- <stop index="3" parkingArea="ParkAreaA3" duration="20" parking="true"/> -->
    </route>

    <vehicle id="v2" type="truck" depart="0" route="route2" departPos="0"/>
    <vehicle id="v1" type="taxi" depart="15" route="route3" departPos="0"/>
    <vehicle id="v0" type="passenger" depart="20" route="route1" departPos="0"/>
    
	
	
</routes>
