<?xml version="1.0" encoding="UTF-8"?>

<!-- generated on Mon Oct 12 21:53:19 2020 by Eclipse SUMO netedit Version 1.7.0
<configuration xmlns:xsi="http://www.w3.org/2001/XMLSchema-instance" xsi:noNamespaceSchemaLocation="http://sumo.dlr.de/xsd/netconvertConfiguration.xsd">

    <processing>
        <offset.disable-normalization value="true"/>
    </processing>

    <junctions>
        <no-turnarounds value="true"/>
    </junctions>

    <netedit>
        <additional-files value="/Users/shuyiyin/Dropbox/UW/proposals/NSF%20CIS/simulation/cui_sumo/simple.add.xml"/>
    </netedit>

    <report>
        <aggregate-warnings value="5"/>
    </report>

</configuration>
-->

<additional xmlns:xsi="http://www.w3.org/2001/XMLSchema-instance" xsi:noNamespaceSchemaLocation="http://sumo.dlr.de/xsd/additional_file.xsd">
    <parkingArea id="1" lane="gneE4_0" startPos="0" endPos="35" roadsideCapacity="1"/>
    <parkingArea id="2" lane="gneE4_0" startPos="57.91" endPos="67.91" roadsideCapacity="1"/>
    <parkingArea id="3" lane="gneE4_0" startPos="103.31" endPos="113.31" roadsideCapacity="1"/>
</additional>
