<?xml version="1.0" encoding="UTF-8"?>
<routes xmlns:xsi="http://www.w3.org/2001/XMLSchema-instance" xsi:noNamespaceSchemaLocation="http://sumo.dlr.de/xsd/routes_file.xsd">
	
	<vType id="passenger" vClass="passenger"></vType>

    <vType id="taxi" vClass="taxi"></vType>

    <vType id="truck" vClass="truck"></vType>
	
    <route id="passenger" edges="gneE10 gneE8 gneE4 gneE7">
		<stop index="0" parkingArea="1" duration="20" parking="true"/>
    </route>

    <route id="truck" edges="gneE10 gneE8 gneE4 gneE7">
        <stop index="0" parkingArea="2" duration="50" parking="true"/>
    </route>

    <route id="taxi" edges="gneE10 gneE8 gneE4 gneE7">
        <stop index="0" parkingArea="1" duration="10" parking="true"/>
    </route>

    <route id="test" edges="gneE5 gneE9 gneE11"></route>

    <vehicle id="test" type="passenger" depart="0" route="test" departPos="0"/>
    <vehicle id="truck" type="truck" depart="0" route="truck" departPos="0"/>
    <vehicle id="taxi" type="taxi" depart="15" route="taxi" departPos="0"/>
    <vehicle id="passenger" type="passenger" depart="20" route="passenger" departPos="0"/>
    
	
	
</routes>
