<?xml version="1.0" encoding="UTF-8"?>

<!-- generated on 10/26/20 22:42:45 by Eclipse SUMO netedit Version 1.7.0
<configuration xmlns:xsi="http://www.w3.org/2001/XMLSchema-instance" xsi:noNamespaceSchemaLocation="http://sumo.dlr.de/xsd/netconvertConfiguration.xsd">

    <input>
        <sumo-net-file value="D:\OneDrive%20-%20UW\Projects\F_CurbParking\envs_sea\sea_net.net.xml"/>
    </input>

    <output>
        <output-file value="D:\OneDrive%20-%20UW\Projects\F_CurbParking\envs_sea\sea_net.net.xml"/>
    </output>

    <processing>
        <geometry.min-radius.fix.railways value="false"/>
        <geometry.max-grade.fix value="false"/>
        <offset.disable-normalization value="true"/>
        <lefthand value="false"/>
    </processing>

    <junctions>
        <no-turnarounds value="true"/>
        <junctions.corner-detail value="5"/>
        <junctions.limit-turn-speed value="5.5"/>
        <rectangular-lane-cut value="false"/>
    </junctions>

    <pedestrian>
        <walkingareas value="false"/>
    </pedestrian>

    <report>
        <aggregate-warnings value="5"/>
    </report>

</configuration>
-->

<net version="1.6" junctionCornerDetail="5" limitTurnSpeed="5.50" xmlns:xsi="http://www.w3.org/2001/XMLSchema-instance" xsi:noNamespaceSchemaLocation="http://sumo.dlr.de/xsd/net_file.xsd">

    <location netOffset="-548089.05,-5272499.10" convBoundary="638.49,1100.46,1145.94,1571.61" origBoundary="-123.397980,47.595620,-122.303617,48.424863" projParameter="+proj=utm +zone=10 +ellps=WGS84 +datum=WGS84 +units=m +no_defs"/>

    <type id="highway.bridleway" priority="1" numLanes="1" speed="2.78" allow="pedestrian" oneway="1" width="2.00"/>
    <type id="highway.bus_guideway" priority="1" numLanes="1" speed="27.78" allow="bus" oneway="1"/>
    <type id="highway.cycleway" priority="1" numLanes="1" speed="8.33" allow="bicycle" oneway="0" width="1.00"/>
    <type id="highway.footway" priority="1" numLanes="1" speed="2.78" allow="pedestrian" oneway="1" width="2.00"/>
    <type id="highway.ford" priority="1" numLanes="1" speed="2.78" allow="army" oneway="0"/>
    <type id="highway.living_street" priority="3" numLanes="1" speed="2.78" disallow="tram rail_urban rail rail_electric ship" oneway="0"/>
    <type id="highway.motorway" priority="13" numLanes="2" speed="44.44" allow="private emergency authority army vip passenger hov taxi bus coach delivery truck trailer motorcycle evehicle custom1 custom2" oneway="1"/>
    <type id="highway.motorway_link" priority="12" numLanes="1" speed="22.22" allow="private emergency authority army vip passenger hov taxi bus coach delivery truck trailer motorcycle evehicle custom1 custom2" oneway="1"/>
    <type id="highway.path" priority="1" numLanes="1" speed="2.78" allow="pedestrian bicycle" oneway="1" width="2.00"/>
    <type id="highway.pedestrian" priority="1" numLanes="1" speed="2.78" allow="pedestrian" oneway="1" width="2.00"/>
    <type id="highway.primary" priority="9" numLanes="2" speed="27.78" disallow="tram rail_urban rail rail_electric ship" oneway="0"/>
    <type id="highway.primary_link" priority="8" numLanes="1" speed="22.22" disallow="tram rail_urban rail rail_electric ship" oneway="0"/>
    <type id="highway.raceway" priority="14" numLanes="2" speed="83.33" allow="vip" oneway="0"/>
    <type id="highway.residential" priority="4" numLanes="1" speed="13.89" disallow="tram rail_urban rail rail_electric ship" oneway="0"/>
    <type id="highway.secondary" priority="7" numLanes="2" speed="27.78" disallow="tram rail_urban rail rail_electric ship" oneway="0"/>
    <type id="highway.secondary_link" priority="6" numLanes="1" speed="22.22" disallow="tram rail_urban rail rail_electric ship" oneway="0"/>
    <type id="highway.service" priority="2" numLanes="1" speed="5.56" allow="pedestrian delivery bicycle" oneway="0"/>
    <type id="highway.stairs" priority="1" numLanes="1" speed="1.39" allow="pedestrian" oneway="1" width="2.00"/>
    <type id="highway.step" priority="1" numLanes="1" speed="1.39" allow="pedestrian" oneway="1" width="2.00"/>
    <type id="highway.steps" priority="1" numLanes="1" speed="1.39" allow="pedestrian" oneway="1" width="2.00"/>
    <type id="highway.tertiary" priority="6" numLanes="1" speed="22.22" disallow="tram rail_urban rail rail_electric ship" oneway="0"/>
    <type id="highway.tertiary_link" priority="5" numLanes="1" speed="22.22" disallow="tram rail_urban rail rail_electric ship" oneway="0"/>
    <type id="highway.track" priority="1" numLanes="1" speed="5.56" disallow="tram rail_urban rail rail_electric ship" oneway="0"/>
    <type id="highway.trunk" priority="11" numLanes="2" speed="27.78" disallow="pedestrian bicycle tram rail_urban rail rail_electric ship" oneway="0"/>
    <type id="highway.trunk_link" priority="10" numLanes="1" speed="22.22" disallow="pedestrian bicycle tram rail_urban rail rail_electric ship" oneway="0"/>
    <type id="highway.unclassified" priority="5" numLanes="1" speed="13.89" disallow="tram rail_urban rail rail_electric ship" oneway="0"/>
    <type id="highway.unsurfaced" priority="1" numLanes="1" speed="8.33" disallow="tram rail_urban rail rail_electric ship" oneway="0"/>
    <type id="railway.light_rail" priority="15" numLanes="1" speed="27.78" allow="rail_urban" oneway="1"/>
    <type id="railway.preserved" priority="15" numLanes="1" speed="27.78" allow="rail" oneway="1"/>
    <type id="railway.rail" priority="15" numLanes="1" speed="83.33" allow="rail rail_electric" oneway="1"/>
    <type id="railway.subway" priority="15" numLanes="1" speed="27.78" allow="rail_urban" oneway="1"/>
    <type id="railway.tram" priority="15" numLanes="1" speed="13.89" allow="tram" oneway="1"/>

    <edge id=":2324752743_0" function="internal">
        <lane id=":2324752743_0_0" index="0" disallow="tram rail_urban rail rail_electric rail_fast ship" speed="3.65" length="4.67" shape="678.49,1268.55 678.32,1267.12 678.68,1266.30 679.55,1266.09 680.93,1266.49"/>
    </edge>
    <edge id=":2324752758_0" function="internal">
        <lane id=":2324752758_0_0" index="0" disallow="tram rail_urban rail rail_electric rail_fast ship" speed="3.65" length="4.67" shape="819.37,1147.65 819.19,1146.21 819.53,1145.39 820.40,1145.17 821.79,1145.55"/>
    </edge>
    <edge id=":3632105813_0" function="internal">
        <lane id=":3632105813_0_0" index="0" disallow="tram rail_urban rail rail_electric rail_fast ship" speed="3.65" length="4.67" shape="1076.95,1245.47 1078.38,1245.30 1079.21,1245.65 1079.42,1246.52 1079.03,1247.91"/>
    </edge>
    <edge id=":53091448_0" function="internal">
        <lane id=":53091448_0_0" index="0" disallow="tram rail_urban rail rail_electric rail_fast ship" speed="6.49" length="9.03" shape="786.75,1243.58 785.10,1245.44 784.45,1247.37 784.79,1249.38 786.13,1251.47"/>
    </edge>
    <edge id=":53091448_1" function="internal">
        <lane id=":53091448_1_0" index="0" disallow="tram rail_urban rail rail_electric rail_fast ship" speed="11.18" length="11.23" shape="786.75,1243.58 778.23,1250.88"/>
        <lane id=":53091448_1_1" index="1" disallow="tram rail_urban rail rail_electric rail_fast ship" speed="11.18" length="11.23" shape="784.68,1241.14 776.14,1248.46"/>
    </edge>
    <edge id=":53091448_3" function="internal">
        <lane id=":53091448_3_0" index="0" disallow="tram rail_urban rail rail_electric rail_fast ship" speed="3.65" length="2.34" shape="784.68,1241.14 783.25,1241.31 782.42,1240.96"/>
    </edge>
    <edge id=":53091448_11" function="internal">
        <lane id=":53091448_11_0" index="0" disallow="tram rail_urban rail rail_electric rail_fast ship" speed="3.65" length="2.34" shape="782.42,1240.96 782.21,1240.09 782.61,1238.70"/>
    </edge>
    <edge id=":53091448_4" function="internal">
        <lane id=":53091448_4_0" index="0" disallow="tram rail_urban rail rail_electric rail_fast ship" speed="6.53" length="9.08" shape="772.59,1235.66 774.45,1237.30 776.40,1237.94 778.42,1237.59 780.54,1236.26"/>
    </edge>
    <edge id=":53091448_5" function="internal">
        <lane id=":53091448_5_0" index="0" disallow="tram rail_urban rail rail_electric rail_fast ship" speed="8.94" length="20.81" shape="772.59,1235.66 786.13,1251.47"/>
    </edge>
    <edge id=":53091448_6" function="internal">
        <lane id=":53091448_6_0" index="0" disallow="tram rail_urban rail rail_electric rail_fast ship" speed="8.13" length="14.59" shape="772.59,1235.66 775.73,1239.88 777.37,1243.42 777.51,1246.28 776.14,1248.46"/>
    </edge>
    <edge id=":53091448_7" function="internal">
        <lane id=":53091448_7_0" index="0" disallow="tram rail_urban rail rail_electric rail_fast ship" speed="11.18" length="11.29" shape="771.95,1243.62 780.54,1236.26"/>
        <lane id=":53091448_7_1" index="1" disallow="tram rail_urban rail rail_electric rail_fast ship" speed="11.18" length="11.29" shape="774.04,1246.04 782.61,1238.70"/>
    </edge>
    <edge id=":53091448_9" function="internal">
        <lane id=":53091448_9_0" index="0" disallow="tram rail_urban rail rail_electric rail_fast ship" speed="8.10" length="3.67" shape="774.04,1246.04 776.39,1245.00 777.47,1245.21"/>
    </edge>
    <edge id=":53091448_10" function="internal">
        <lane id=":53091448_10_0" index="0" disallow="tram rail_urban rail rail_electric rail_fast ship" speed="3.65" length="2.34" shape="774.04,1246.04 775.47,1245.86 776.30,1246.20"/>
    </edge>
    <edge id=":53091448_12" function="internal">
        <lane id=":53091448_12_0" index="0" disallow="tram rail_urban rail rail_electric rail_fast ship" speed="8.10" length="10.92" shape="777.47,1245.21 779.19,1245.55 782.43,1247.71 786.13,1251.47"/>
    </edge>
    <edge id=":53091448_13" function="internal">
        <lane id=":53091448_13_0" index="0" disallow="tram rail_urban rail rail_electric rail_fast ship" speed="3.65" length="2.34" shape="776.30,1246.20 776.52,1247.07 776.14,1248.46"/>
    </edge>
    <edge id=":53091449_0" function="internal">
        <lane id=":53091449_0_0" index="0" disallow="tram rail_urban rail rail_electric rail_fast ship" speed="6.43" length="9.03" shape="837.12,1312.50 838.95,1314.19 840.86,1314.86 842.86,1314.53 844.95,1313.17"/>
    </edge>
    <edge id=":53091449_1" function="internal">
        <lane id=":53091449_1_0" index="0" disallow="tram rail_urban rail rail_electric rail_fast ship" speed="8.94" length="17.68" shape="837.12,1312.50 848.62,1325.93"/>
    </edge>
    <edge id=":53091449_2" function="internal">
        <lane id=":53091449_2_0" index="0" disallow="tram rail_urban rail rail_electric rail_fast ship" speed="11.18" length="11.27" shape="836.44,1320.49 844.95,1313.17"/>
        <lane id=":53091449_2_1" index="1" disallow="tram rail_urban rail rail_electric rail_fast ship" speed="11.18" length="11.27" shape="838.51,1322.93 847.05,1315.59"/>
        <lane id=":53091449_2_2" index="2" disallow="tram rail_urban rail rail_electric rail_fast ship" speed="11.18" length="11.27" shape="840.58,1325.37 849.15,1318.00"/>
    </edge>
    <edge id=":53091449_5" function="internal">
        <lane id=":53091449_5_0" index="0" disallow="tram rail_urban rail rail_electric rail_fast ship" speed="6.61" length="9.13" shape="840.58,1325.37 842.68,1324.05 844.72,1323.71 846.70,1324.33 848.62,1325.93"/>
    </edge>
    <edge id=":53091450_0" function="internal">
        <lane id=":53091450_0_0" index="0" disallow="tram rail_urban rail rail_electric rail_fast ship" speed="6.47" length="9.03" shape="914.60,1392.84 912.97,1394.71 912.33,1396.64 912.69,1398.65 914.06,1400.72"/>
    </edge>
    <edge id=":53091450_1" function="internal">
        <lane id=":53091450_1_0" index="0" disallow="tram rail_urban rail rail_electric rail_fast ship" speed="11.18" length="11.29" shape="914.60,1392.84 906.01,1400.19"/>
        <lane id=":53091450_1_1" index="1" disallow="tram rail_urban rail rail_electric rail_fast ship" speed="11.18" length="11.29" shape="912.52,1390.42 903.94,1397.75"/>
    </edge>
    <edge id=":53091450_3" function="internal">
        <lane id=":53091450_3_0" index="0" disallow="tram rail_urban rail rail_electric rail_fast ship" speed="3.65" length="2.34" shape="912.52,1390.42 911.09,1390.59 910.26,1390.24"/>
    </edge>
    <edge id=":53091450_11" function="internal">
        <lane id=":53091450_11_0" index="0" disallow="tram rail_urban rail rail_electric rail_fast ship" speed="3.65" length="2.34" shape="910.26,1390.24 910.05,1389.37 910.44,1387.99"/>
    </edge>
    <edge id=":53091450_4" function="internal">
        <lane id=":53091450_4_0" index="0" disallow="tram rail_urban rail rail_electric rail_fast ship" speed="6.51" length="9.09" shape="900.42,1384.97 902.27,1386.61 904.21,1387.26 906.24,1386.90 908.35,1385.56"/>
    </edge>
    <edge id=":53091450_5" function="internal">
        <lane id=":53091450_5_0" index="0" disallow="tram rail_urban rail rail_electric rail_fast ship" speed="8.94" length="20.83" shape="900.42,1384.97 914.06,1400.72"/>
    </edge>
    <edge id=":53091450_6" function="internal">
        <lane id=":53091450_6_0" index="0" disallow="tram rail_urban rail rail_electric rail_fast ship" speed="8.11" length="14.57" shape="900.42,1384.97 903.55,1389.21 905.18,1392.75 905.31,1395.59 903.94,1397.75"/>
    </edge>
    <edge id=":53091450_7" function="internal">
        <lane id=":53091450_7_0" index="0" disallow="tram rail_urban rail rail_electric rail_fast ship" speed="11.18" length="11.28" shape="899.79,1392.88 908.35,1385.56"/>
        <lane id=":53091450_7_1" index="1" disallow="tram rail_urban rail rail_electric rail_fast ship" speed="11.18" length="11.28" shape="901.86,1395.32 910.44,1387.99"/>
    </edge>
    <edge id=":53091450_9" function="internal">
        <lane id=":53091450_9_0" index="0" disallow="tram rail_urban rail rail_electric rail_fast ship" speed="8.17" length="3.63" shape="901.86,1395.32 904.21,1394.30 905.26,1394.51"/>
    </edge>
    <edge id=":53091450_10" function="internal">
        <lane id=":53091450_10_0" index="0" disallow="tram rail_urban rail rail_electric rail_fast ship" speed="3.65" length="2.34" shape="901.86,1395.32 903.29,1395.15 904.12,1395.50"/>
    </edge>
    <edge id=":53091450_12" function="internal">
        <lane id=":53091450_12_0" index="0" disallow="tram rail_urban rail rail_electric rail_fast ship" speed="8.17" length="10.99" shape="905.26,1394.51 907.02,1394.86 910.31,1397.00 914.06,1400.72"/>
    </edge>
    <edge id=":53091450_13" function="internal">
        <lane id=":53091450_13_0" index="0" disallow="tram rail_urban rail rail_electric rail_fast ship" speed="3.65" length="2.34" shape="904.12,1395.50 904.33,1396.36 903.94,1397.75"/>
    </edge>
    <edge id=":53091453_0" function="internal">
        <lane id=":53091453_0_0" index="0" disallow="tram rail_urban rail rail_electric rail_fast ship" speed="6.45" length="9.03" shape="980.25,1466.65 978.62,1468.53 978.00,1470.46 978.39,1472.46 979.79,1474.51"/>
    </edge>
    <edge id=":53091453_1" function="internal">
        <lane id=":53091453_1_0" index="0" disallow="tram rail_urban rail rail_electric rail_fast ship" speed="11.18" length="11.52" shape="980.25,1466.65 971.48,1474.18"/>
        <lane id=":53091453_1_1" index="1" disallow="tram rail_urban rail rail_electric rail_fast ship" speed="11.18" length="11.52" shape="978.15,1464.23 969.41,1471.74"/>
        <lane id=":53091453_1_2" index="2" disallow="tram rail_urban rail rail_electric rail_fast ship" speed="11.18" length="11.52" shape="976.06,1461.81 967.33,1469.30"/>
        <lane id=":53091453_1_3" index="3" disallow="tram rail_urban rail rail_electric rail_fast ship" speed="11.18" length="11.52" shape="973.97,1459.39 965.26,1466.87"/>
    </edge>
    <edge id=":53091453_5" function="internal">
        <lane id=":53091453_5_0" index="0" disallow="tram rail_urban rail rail_electric rail_fast ship" speed="8.94" length="20.88" shape="965.80,1459.01 979.79,1474.51"/>
    </edge>
    <edge id=":53091453_6" function="internal">
        <lane id=":53091453_6_0" index="0" disallow="tram rail_urban rail rail_electric rail_fast ship" speed="7.28" length="11.77" shape="965.80,1459.01 968.10,1462.12 969.12,1464.88 968.87,1467.27 967.33,1469.30"/>
    </edge>
    <edge id=":53091453_7" function="internal">
        <lane id=":53091453_7_0" index="0" disallow="tram rail_urban rail rail_electric rail_fast ship" speed="6.46" length="9.03" shape="965.80,1459.01 967.17,1461.08 967.54,1463.08 966.90,1465.01 965.26,1466.87"/>
    </edge>
    <edge id=":53144745_0" function="internal">
        <lane id=":53144745_0_0" index="0" disallow="tram rail_urban rail rail_electric rail_fast ship" speed="6.20" length="9.05" shape="929.47,1121.99 927.80,1123.90 927.25,1125.81 927.81,1127.72 929.48,1129.62"/>
    </edge>
    <edge id=":53144745_1" function="internal">
        <lane id=":53144745_1_0" index="0" disallow="tram rail_urban rail rail_electric rail_fast ship" speed="11.18" length="14.47" shape="929.47,1121.99 918.48,1131.41"/>
        <lane id=":53144745_1_1" index="1" disallow="tram rail_urban rail rail_electric rail_fast ship" speed="11.18" length="14.47" shape="927.39,1119.56 916.40,1128.98"/>
    </edge>
    <edge id=":53144745_3" function="internal">
        <lane id=":53144745_3_0" index="0" disallow="tram rail_urban rail rail_electric rail_fast ship" speed="3.65" length="2.34" shape="927.39,1119.56 925.96,1119.74 925.13,1119.39"/>
    </edge>
    <edge id=":53144745_8" function="internal">
        <lane id=":53144745_8_0" index="0" disallow="tram rail_urban rail rail_electric rail_fast ship" speed="3.65" length="2.34" shape="925.13,1119.39 924.92,1118.52 925.31,1117.13"/>
    </edge>
    <edge id=":53144745_4" function="internal">
        <lane id=":53144745_4_0" index="0" disallow="tram rail_urban rail rail_electric rail_fast ship" speed="11.18" length="14.46" shape="912.24,1124.11 923.22,1114.71"/>
        <lane id=":53144745_4_1" index="1" disallow="tram rail_urban rail rail_electric rail_fast ship" speed="11.18" length="14.46" shape="914.32,1126.54 925.31,1117.13"/>
    </edge>
    <edge id=":53144745_6" function="internal">
        <lane id=":53144745_6_0" index="0" disallow="tram rail_urban rail rail_electric rail_fast ship" speed="8.72" length="3.18" shape="914.32,1126.54 916.38,1125.83 917.35,1126.06"/>
    </edge>
    <edge id=":53144745_7" function="internal">
        <lane id=":53144745_7_0" index="0" disallow="tram rail_urban rail rail_electric rail_fast ship" speed="3.65" length="2.34" shape="914.32,1126.54 915.76,1126.37 916.58,1126.72"/>
    </edge>
    <edge id=":53144745_9" function="internal">
        <lane id=":53144745_9_0" index="0" disallow="tram rail_urban rail rail_electric rail_fast ship" speed="8.72" length="11.84" shape="917.35,1126.06 919.25,1126.51 922.92,1128.58 927.40,1132.06"/>
    </edge>
    <edge id=":53144745_10" function="internal">
        <lane id=":53144745_10_0" index="0" disallow="tram rail_urban rail rail_electric rail_fast ship" speed="3.65" length="2.34" shape="916.58,1126.72 916.80,1127.59 916.40,1128.98"/>
    </edge>
    <edge id=":53144746_0" function="internal">
        <lane id=":53144746_0_0" index="0" disallow="tram rail_urban rail rail_electric rail_fast ship" speed="6.56" length="9.15" shape="857.07,1191.32 855.19,1189.69 853.23,1189.05 851.18,1189.40 849.05,1190.75"/>
    </edge>
    <edge id=":53144746_1" function="internal">
        <lane id=":53144746_1_0" index="0" disallow="tram rail_urban rail rail_electric rail_fast ship" speed="11.18" length="20.84" shape="857.07,1191.32 843.45,1175.54"/>
    </edge>
    <edge id=":53144746_2" function="internal">
        <lane id=":53144746_2_0" index="0" disallow="tram rail_urban rail rail_electric rail_fast ship" speed="3.65" length="2.34" shape="857.07,1191.32 856.89,1189.89 857.23,1189.06"/>
    </edge>
    <edge id=":53144746_17" function="internal">
        <lane id=":53144746_17_0" index="0" disallow="tram rail_urban rail rail_electric rail_fast ship" speed="3.65" length="2.34" shape="857.23,1189.06 858.10,1188.84 859.49,1189.23"/>
    </edge>
    <edge id=":53144746_3" function="internal">
        <lane id=":53144746_3_0" index="0" disallow="tram rail_urban rail rail_electric rail_fast ship" speed="6.50" length="9.03" shape="860.09,1181.34 858.45,1183.20 857.81,1185.14 858.16,1187.15 859.49,1189.23"/>
    </edge>
    <edge id=":53144746_4" function="internal">
        <lane id=":53144746_4_0" index="0" disallow="tram rail_urban rail rail_electric rail_fast ship" speed="11.18" length="14.50" shape="860.09,1181.34 849.05,1190.75"/>
        <lane id=":53144746_4_1" index="1" disallow="tram rail_urban rail rail_electric rail_fast ship" speed="11.18" length="14.50" shape="858.01,1178.91 846.98,1188.31"/>
    </edge>
    <edge id=":53144746_6" function="internal">
        <lane id=":53144746_6_0" index="0" disallow="tram rail_urban rail rail_electric rail_fast ship" speed="8.70" length="5.30" shape="858.01,1178.91 854.59,1180.85 853.23,1180.88"/>
    </edge>
    <edge id=":53144746_7" function="internal">
        <lane id=":53144746_7_0" index="0" disallow="tram rail_urban rail rail_electric rail_fast ship" speed="3.65" length="2.34" shape="858.01,1178.91 856.58,1179.08 855.75,1178.73"/>
    </edge>
    <edge id=":53144746_18" function="internal">
        <lane id=":53144746_18_0" index="0" disallow="tram rail_urban rail rail_electric rail_fast ship" speed="8.70" length="11.61" shape="853.23,1180.88 851.02,1180.94 847.31,1179.17 843.45,1175.54"/>
    </edge>
    <edge id=":53144746_19" function="internal">
        <lane id=":53144746_19_0" index="0" disallow="tram rail_urban rail rail_electric rail_fast ship" speed="3.65" length="2.34" shape="855.75,1178.73 855.54,1177.87 855.93,1176.48"/>
    </edge>
    <edge id=":53144746_8" function="internal">
        <lane id=":53144746_8_0" index="0" disallow="tram rail_urban rail rail_electric rail_fast ship" speed="6.54" length="9.11" shape="845.87,1173.45 847.75,1175.09 849.71,1175.73 851.74,1175.39 853.85,1174.05"/>
    </edge>
    <edge id=":53144746_9" function="internal">
        <lane id=":53144746_9_0" index="0" disallow="tram rail_urban rail rail_electric rail_fast ship" speed="11.18" length="20.84" shape="845.87,1173.45 859.49,1189.23"/>
    </edge>
    <edge id=":53144746_10" function="internal">
        <lane id=":53144746_10_0" index="0" disallow="tram rail_urban rail rail_electric rail_fast ship" speed="8.66" length="7.87" shape="845.87,1173.45 848.89,1177.80 849.64,1180.27"/>
    </edge>
    <edge id=":53144746_11" function="internal">
        <lane id=":53144746_11_0" index="0" disallow="tram rail_urban rail rail_electric rail_fast ship" speed="3.65" length="2.34" shape="845.87,1173.45 846.05,1174.88 845.71,1175.71"/>
    </edge>
    <edge id=":53144746_20" function="internal">
        <lane id=":53144746_20_0" index="0" disallow="tram rail_urban rail rail_electric rail_fast ship" speed="8.66" length="9.03" shape="849.64,1180.27 850.08,1181.72 849.45,1185.23 846.98,1188.31"/>
    </edge>
    <edge id=":53144746_21" function="internal">
        <lane id=":53144746_21_0" index="0" disallow="tram rail_urban rail rail_electric rail_fast ship" speed="3.65" length="2.34" shape="845.71,1175.71 844.84,1175.93 843.45,1175.54"/>
    </edge>
    <edge id=":53144746_12" function="internal">
        <lane id=":53144746_12_0" index="0" disallow="tram rail_urban rail rail_electric rail_fast ship" speed="6.49" length="9.03" shape="842.84,1183.43 844.48,1181.57 845.13,1179.64 844.79,1177.63 843.45,1175.54"/>
    </edge>
    <edge id=":53144746_13" function="internal">
        <lane id=":53144746_13_0" index="0" disallow="tram rail_urban rail rail_electric rail_fast ship" speed="11.18" length="14.47" shape="842.84,1183.43 853.85,1174.05"/>
        <lane id=":53144746_13_1" index="1" disallow="tram rail_urban rail rail_electric rail_fast ship" speed="11.18" length="14.47" shape="844.91,1185.87 855.93,1176.48"/>
    </edge>
    <edge id=":53144746_15" function="internal">
        <lane id=":53144746_15_0" index="0" disallow="tram rail_urban rail rail_electric rail_fast ship" speed="8.71" length="5.28" shape="844.91,1185.87 848.35,1183.93 849.69,1183.90"/>
    </edge>
    <edge id=":53144746_16" function="internal">
        <lane id=":53144746_16_0" index="0" disallow="tram rail_urban rail rail_electric rail_fast ship" speed="3.65" length="2.34" shape="844.91,1185.87 846.34,1185.70 847.17,1186.05"/>
    </edge>
    <edge id=":53144746_22" function="internal">
        <lane id=":53144746_22_0" index="0" disallow="tram rail_urban rail rail_electric rail_fast ship" speed="8.71" length="11.64" shape="849.69,1183.90 851.93,1183.85 855.64,1185.61 859.49,1189.23"/>
    </edge>
    <edge id=":53144746_23" function="internal">
        <lane id=":53144746_23_0" index="0" disallow="tram rail_urban rail rail_electric rail_fast ship" speed="3.65" length="2.34" shape="847.17,1186.05 847.38,1186.92 846.98,1188.31"/>
    </edge>
    <edge id=":53144747_0" function="internal">
        <lane id=":53144747_0_0" index="0" disallow="tram rail_urban rail rail_electric rail_fast ship" speed="6.48" length="9.03" shape="715.53,1312.49 713.68,1310.84 711.75,1310.19 709.74,1310.53 707.66,1311.87"/>
    </edge>
    <edge id=":53144747_1" function="internal">
        <lane id=":53144747_1_0" index="0" disallow="tram rail_urban rail rail_electric rail_fast ship" speed="8.94" length="20.87" shape="715.53,1312.49 702.07,1296.54"/>
    </edge>
    <edge id=":53144747_2" function="internal">
        <lane id=":53144747_2_0" index="0" disallow="tram rail_urban rail rail_electric rail_fast ship" speed="8.72" length="7.90" shape="715.53,1312.49 712.56,1308.11 711.82,1305.61"/>
    </edge>
    <edge id=":53144747_3" function="internal">
        <lane id=":53144747_3_0" index="0" disallow="tram rail_urban rail rail_electric rail_fast ship" speed="3.65" length="2.34" shape="715.53,1312.49 715.37,1311.06 715.72,1310.23"/>
    </edge>
    <edge id=":53144747_18" function="internal">
        <lane id=":53144747_18_0" index="0" disallow="tram rail_urban rail rail_electric rail_fast ship" speed="8.72" length="9.04" shape="711.82,1305.61 711.39,1304.16 712.03,1300.64 714.48,1297.55"/>
    </edge>
    <edge id=":53144747_19" function="internal">
        <lane id=":53144747_19_0" index="0" disallow="tram rail_urban rail rail_electric rail_fast ship" speed="3.65" length="2.34" shape="715.72,1310.23 716.59,1310.02 717.98,1310.43"/>
    </edge>
    <edge id=":53144747_4" function="internal">
        <lane id=":53144747_4_0" index="0" disallow="tram rail_urban rail rail_electric rail_fast ship" speed="6.57" length="9.16" shape="718.65,1302.41 716.99,1304.29 716.32,1306.26 716.65,1308.30 717.98,1310.43"/>
    </edge>
    <edge id=":53144747_5" function="internal">
        <lane id=":53144747_5_0" index="0" disallow="tram rail_urban rail rail_electric rail_fast ship" speed="11.18" length="14.51" shape="718.65,1302.41 707.66,1311.87"/>
        <lane id=":53144747_5_1" index="1" disallow="tram rail_urban rail rail_electric rail_fast ship" speed="11.18" length="14.51" shape="716.57,1299.98 705.56,1309.46"/>
    </edge>
    <edge id=":53144747_7" function="internal">
        <lane id=":53144747_7_0" index="0" disallow="tram rail_urban rail rail_electric rail_fast ship" speed="8.66" length="5.26" shape="716.57,1299.98 713.13,1301.93 711.82,1301.96"/>
    </edge>
    <edge id=":53144747_8" function="internal">
        <lane id=":53144747_8_0" index="0" disallow="tram rail_urban rail rail_electric rail_fast ship" speed="3.65" length="2.34" shape="716.57,1299.98 715.13,1300.15 714.31,1299.80"/>
    </edge>
    <edge id=":53144747_20" function="internal">
        <lane id=":53144747_20_0" index="0" disallow="tram rail_urban rail rail_electric rail_fast ship" speed="8.66" length="11.63" shape="711.82,1301.96 709.58,1302.01 705.89,1300.21 702.07,1296.54"/>
    </edge>
    <edge id=":53144747_21" function="internal">
        <lane id=":53144747_21_0" index="0" disallow="tram rail_urban rail rail_electric rail_fast ship" speed="3.65" length="2.34" shape="714.31,1299.80 714.09,1298.93 714.48,1297.55"/>
    </edge>
    <edge id=":53144747_9" function="internal">
        <lane id=":53144747_9_0" index="0" disallow="tram rail_urban rail rail_electric rail_fast ship" speed="6.49" length="9.03" shape="704.52,1294.48 706.37,1296.13 708.30,1296.79 710.31,1296.45 712.40,1295.12"/>
    </edge>
    <edge id=":53144747_10" function="internal">
        <lane id=":53144747_10_0" index="0" disallow="tram rail_urban rail rail_electric rail_fast ship" speed="8.94" length="20.87" shape="704.52,1294.48 717.98,1310.43"/>
    </edge>
    <edge id=":53144747_11" function="internal">
        <lane id=":53144747_11_0" index="0" disallow="tram rail_urban rail rail_electric rail_fast ship" speed="8.74" length="7.87" shape="704.52,1294.48 707.49,1298.86 708.21,1301.34"/>
    </edge>
    <edge id=":53144747_12" function="internal">
        <lane id=":53144747_12_0" index="0" disallow="tram rail_urban rail rail_electric rail_fast ship" speed="3.65" length="2.34" shape="704.52,1294.48 704.68,1295.91 704.33,1296.74"/>
    </edge>
    <edge id=":53144747_22" function="internal">
        <lane id=":53144747_22_0" index="0" disallow="tram rail_urban rail rail_electric rail_fast ship" speed="8.74" length="9.08" shape="708.21,1301.34 708.65,1302.81 708.01,1306.35 705.56,1309.46"/>
    </edge>
    <edge id=":53144747_23" function="internal">
        <lane id=":53144747_23_0" index="0" disallow="tram rail_urban rail rail_electric rail_fast ship" speed="3.65" length="2.34" shape="704.33,1296.74 703.46,1296.95 702.07,1296.54"/>
    </edge>
    <edge id=":53144747_13" function="internal">
        <lane id=":53144747_13_0" index="0" disallow="tram rail_urban rail rail_electric rail_fast ship" speed="6.60" length="9.21" shape="701.37,1304.62 703.04,1302.70 703.72,1300.72 703.39,1298.67 702.07,1296.54"/>
    </edge>
    <edge id=":53144747_14" function="internal">