<?xml version="1.0" encoding="UTF-8"?>
          <routes xmlns:xsi="http://www.w3.org/2001/XMLSchema-instance" xsi:noNamespaceSchemaLocation="http://sumo.dlr.de/xsd/routes_file.xsd">
          
	<vType id="passenger" vClass="passenger"></vType>
	<flow id="f200" begin="0" end="2400" number="300" from="01-23-NW" to="01-27-NW"/>
	<flow id="f201" begin="0" end="2400" number="300" from="25-00-NE" to="26-04-NE"/>
	<flow id="f202" begin="0" end="2400" number="300" from="26-00-NE" to="26-04-NE"/>
	<flow id="f203" begin="0" end="2400" number="300" from="27-00-NE" to="27-04-NE"/>
	<flow id="f204" begin="0" end="2400" number="300" from="01-27-SE" to="01-23-SE"/>
	<flow id="f205" begin="0" end="2400" number="300" from="02-27-SE" to="02-23-SE"/>
	<flow id="f206" begin="0" end="2400" number="300" from="03-27-SE" to="03-23-SE"/>
	<flow id="f207" begin="0" end="2400" number="300" from="27-04-SW" to="27-00-SW"/>
	<flow id="f208" begin="0" end="2400" number="300" from="04-23-NW" to="04-27-NW"/>
	<flow id="f209" begin="0" end="2400" number="300" from="03-23-NW" to="03-27-NW"/>
	<trip id="t0" depart="0" from="01-23-NW" to="26-04-NE">
		 <stop index="0" parkingArea="25-01-NW" duration="600" parking="true"/>
	</trip>
	<trip id="t1" depart="10" from="02-27-SE" to="02-23-SE">
		 <stop index="0" parkingArea="24-02-NW" duration="600" parking="true"/>
	</trip>
	<trip id="t2" depart="20" from="03-27-SE" to="01-27-NW">
		 <stop index="0" parkingArea="27-02-NW" duration="600" parking="true"/>
	</trip>
	<trip id="t3" depart="30" from="03-27-SE" to="27-00-SW">
		 <stop index="0" parkingArea="25-01-NW" duration="600" parking="true"/>
	</trip>
	<trip id="t4" depart="40" from="25-00-NE" to="27-04-NE">
		 <stop index="0" parkingArea="26-02-NW" duration="600" parking="true"/>
	</trip>
	<trip id="t5" depart="50" from="02-27-SE" to="01-23-SE">
		 <stop index="0" parkingArea="25-02-SE" duration="600" parking="true"/>
	</trip>
	<trip id="t6" depart="60" from="03-27-SE" to="01-27-NW">
		 <stop index="0" parkingArea="04-26-SW" duration="600" parking="true"/>
	</trip>
	<trip id="t7" depart="70" from="01-27-SE" to="02-23-SE">
		 <stop index="0" parkingArea="24-03-NW" duration="600" parking="true"/>
	</trip>
	<trip id="t8" depart="80" from="26-00-NE" to="02-23-SE">
		 <stop index="0" parkingArea="01-26-SW" duration="600" parking="true"/>
	</trip>
	<trip id="t9" depart="90" from="03-27-SE" to="04-27-NW">
		 <stop index="0" parkingArea="25-01-SE" duration="600" parking="true"/>
	</trip>
	<trip id="t10" depart="100" from="02-27-SE" to="25-00-SW">
		 <stop index="0" parkingArea="01-25-SW" duration="600" parking="true"/>
	</trip>
	<trip id="t11" depart="110" from="27-00-NE" to="24-04-NE">
		 <stop index="0" parkingArea="01-25-NE" duration="600" parking="true"/>
	</trip>
	<trip id="t12" depart="120" from="01-23-NW" to="27-04-NE">
		 <stop index="0" parkingArea="24-02-NW" duration="600" parking="true"/>
	</trip>
	<trip id="t13" depart="130" from="01-23-NW" to="24-04-NE">
		 <stop index="0" parkingArea="26-02-NW" duration="600" parking="true"/>
	</trip>
	<trip id="t14" depart="140" from="03-23-NW" to="27-00-SW">
		 <stop index="0" parkingArea="02-25-SW" duration="600" parking="true"/>
	</trip>
	<trip id="t15" depart="150" from="01-27-SE" to="24-04-NE">
		 <stop index="0" parkingArea="01-24-NE" duration="600" parking="true"/>
	</trip>
	<trip id="t16" depart="160" from="01-27-SE" to="25-00-SW">
		 <stop index="0" parkingArea="01-24-SW" duration="600" parking="true"/>
	</trip>
	<trip id="t17" depart="170" from="02-27-SE" to="27-04-NE">
		 <stop index="0" parkingArea="01-24-NE" duration="600" parking="true"/>
	</trip>
	<trip id="t18" depart="180" from="03-23-NW" to="04-27-NW">
		 <stop index="0" parkingArea="25-03-NW" duration="600" parking="true"/>
	</trip>
	<trip id="t19" depart="190" from="01-23-NW" to="01-23-SE">
		 <stop index="0" parkingArea="03-24-SW" duration="600" parking="true"/>
	</trip>
	<trip id="t20" depart="200" from="01-23-NW" to="27-04-NE">
		 <stop index="0" parkingArea="26-03-SE" duration="600" parking="true"/>
	</trip>
	<trip id="t21" depart="210" from="25-00-NE" to="04-27-NW">
		 <stop index="0" parkingArea="24-01-NW" duration="600" parking="true"/>
	</trip>
	<trip id="t22" depart="220" from="01-23-NW" to="01-27-NW">
		 <stop index="0" parkingArea="25-02-SE" duration="600" parking="true"/>
	</trip>
	<trip id="t23" depart="230" from="27-04-SW" to="03-27-NW">
		 <stop index="0" parkingArea="04-25-NE" duration="600" parking="true"/>
	</trip>
	<trip id="t24" depart="240" from="27-04-SW" to="01-27-NW">
		 <stop index="0" parkingArea="04-24-NE" duration="600" parking="true"/>
	</trip>
	<trip id="t25" depart="250" from="25-00-NE" to="02-23-SE">
		 <stop index="0" parkingArea="03-25-NE" duration="600" parking="true"/>
	</trip>
	<trip id="t26" depart="260" from="02-27-SE" to="27-00-SW">
		 <stop index="0" parkingArea="01-24-SW" duration="600" parking="true"/>
	</trip>
	<trip id="t27" depart="270" from="01-27-SE" to="03-27-NW">
		 <stop index="0" parkingArea="04-25-SW" duration="600" parking="true"/>
	</trip>
	<trip id="t28" depart="280" from="27-00-NE" to="01-23-SE">
		 <stop index="0" parkingArea="04-24-SW" duration="600" parking="true"/>
	</trip>
	<trip id="t29" depart="290" from="26-00-NE" to="02-23-SE">
		 <stop index="0" parkingArea="03-26-SW" duration="600" parking="true"/>
	</trip>
	<trip id="t30" depart="300" from="27-00-NE" to="26-04-NE">
		 <stop index="0" parkingArea="26-01-NW" duration="600" parking="true"/>
	</trip>
	<trip id="t31" depart="310" from="04-23-NW" to="26-04-NE">
		 <stop index="0" parkingArea="26-03-NW" duration="600" parking="true"/>
	</trip>
	<trip id="t32" depart="320" from="27-00-NE" to="04-27-NW">
		 <stop index="0" parkingArea="26-03-SE" duration="600" parking="true"/>
	</trip>
	<trip id="t33" depart="330" from="03-27-SE" to="26-04-NE">
		 <stop index="0" parkingArea="01-24-SW" duration="600" parking="true"/>
	</trip>
	<trip id="t34" depart="340" from="03-23-NW" to="27-00-SW">
		 <stop index="0" parkingArea="27-02-SE" duration="600" parking="true"/>
	</trip>
	<trip id="t35" depart="350" from="02-27-SE" to="27-04-NE">
		 <stop index="0" parkingArea="27-03-SE" duration="600" parking="true"/>
	</trip>
	<trip id="t36" depart="360" from="01-27-SE" to="24-04-NE">
		 <stop index="0" parkingArea="26-02-NW" duration="600" parking="true"/>
	</trip>
	<trip id="t37" depart="370" from="26-00-NE" to="24-04-NE">
		 <stop index="0" parkingArea="04-25-NE" duration="600" parking="true"/>
	</trip>
	<trip id="t38" depart="380" from="27-00-NE" to="01-23-SE">
		 <stop index="0" parkingArea="26-02-NW" duration="600" parking="true"/>
	</trip>
	<trip id="t39" depart="390" from="02-27-SE" to="01-27-NW">
		 <stop index="0" parkingArea="02-25-SW" duration="600" parking="true"/>
	</trip>
	<trip id="t40" depart="400" from="27-04-SW" to="04-27-NW">
		 <stop index="0" parkingArea="24-03-NW" duration="600" parking="true"/>
	</trip>
	<trip id="t41" depart="410" from="03-23-NW" to="25-00-SW">
		 <stop index="0" parkingArea="26-02-NW" duration="600" parking="true"/>
	</trip>
	<trip id="t42" depart="420" from="03-27-SE" to="01-23-SE">
		 <stop index="0" parkingArea="27-03-SE" duration="600" parking="true"/>
	</trip>
	<trip id="t43" depart="430" from="03-27-SE" to="02-23-SE">
		 <stop index="0" parkingArea="01-25-NE" duration="600" parking="true"/>
	</trip>
	<trip id="t44" depart="440" from="26-00-NE" to="01-27-NW">
		 <stop index="0" parkingArea="27-01-SE" duration="600" parking="true"/>
	</trip>
	<trip id="t45" depart="450" from="04-23-NW" to="27-04-NE">
		 <stop index="0" parkingArea="01-24-NE" duration="600" parking="true"/>
	</trip>
	<trip id="t46" depart="460" from="03-23-NW" to="27-00-SW">
		 <stop index="0" parkingArea="26-03-NW" duration="600" parking="true"/>
	</trip>
	<trip id="t47" depart="470" from="01-27-SE" to="27-04-NE">
		 <stop index="0" parkingArea="02-26-NE" duration="600" parking="true"/>
	</trip>
	<trip id="t48" depart="480" from="01-23-NW" to="03-23-SE">
		 <stop index="0" parkingArea="02-25-NE" duration="600" parking="true"/>
	</trip>
	<trip id="t49" depart="490" from="02-27-SE" to="27-04-NE">
		 <stop index="0" parkingArea="03-25-SW" duration="600" parking="true"/>
	</trip>
	<trip id="t50" depart="500" from="27-04-SW" to="01-27-NW">
		 <stop index="0" parkingArea="27-02-NW" duration="600" parking="true"/>
	</trip>
	<trip id="t51" depart="510" from="27-00-NE" to="27-04-NE">
		 <stop index="0" parkingArea="03-24-NE" duration="600" parking="true"/>
	</trip>
	<trip id="t52" depart="520" from="02-27-SE" to="03-27-NW">
		 <stop index="0" parkingArea="27-01-SE" duration="600" parking="true"/>
	</trip>
	<trip id="t53" depart="530" from="25-00-NE" to="01-27-NW">
		 <stop index="0" parkingArea="26-01-SE" duration="600" parking="true"/>
	</trip>
	<trip id="t54" depart="540" from="03-27-SE" to="26-04-NE">
		 <stop index="0" parkingArea="01-25-SW" duration="600" parking="true"/>
	</trip>
	<trip id="t55" depart="550" from="27-00-NE" to="01-23-SE">
		 <stop index="0" parkingArea="01-25-NE" duration="600" parking="true"/>
	</trip>
	<trip id="t56" depart="560" from="01-27-SE" to="27-00-SW">
		 <stop index="0" parkingArea="26-03-NW" duration="600" parking="true"/>
	</trip>
	<trip id="t57" depart="570" from="27-04-SW" to="03-23-SE">
		 <stop index="0" parkingArea="03-26-SW" duration="600" parking="true"/>
	</trip>
	<trip id="t58" depart="580" from="27-04-SW" to="25-00-SW">
		 <stop index="0" parkingArea="02-26-SW" duration="600" parking="true"/>
	</trip>
	<trip id="t59" depart="590" from="03-23-NW" to="27-04-NE">
		 <stop index="0" parkingArea="01-25-SW" duration="600" parking="true"/>
	</trip>
	<trip id="t60" depart="600" from="01-27-SE" to="01-27-NW">
		 <stop index="0" parkingArea="26-01-NW" duration="600" parking="true"/>
	</trip>
	<trip id="t61" depart="610" from="04-23-NW" to="26-04-NE">
		 <stop index="0" parkingArea="04-25-SW" duration="600" parking="true"/>
	</trip>
	<trip id="t62" depart="620" from="26-00-NE" to="03-23-SE">
		 <stop index="0" parkingArea="02-26-SW" duration="600" parking="true"/>
	</trip>
	<trip id="t63" depart="630" from="25-00-NE" to="03-27-NW">
		 <stop index="0" parkingArea="04-25-NE" duration="600" parking="true"/>
	</trip>
	<trip id="t64" depart="640" from="27-00-NE" to="25-00-SW">
		 <stop index="0" parkingArea="24-01-SE" duration="600" parking="true"/>
	</trip>
	<trip id="t65" depart="650" from="01-27-SE" to="01-27-NW">
		 <stop index="0" parkingArea="27-01-NW" duration="600" parking="true"/>
	</trip>
	<trip id="t66" depart="660" from="27-00-NE" to="01-23-SE">
		 <stop index="0" parkingArea="26-03-SE" duration="600" parking="true"/>
	</trip>
	<trip id="t67" depart="670" from="01-23-NW" to="01-23-SE">
		 <stop index="0" parkingArea="24-03-NW" duration="600" parking="true"/>
	</trip>
	<trip id="t68" depart="680" from="25-00-NE" to="27-00-SW">
		 <stop index="0" parkingArea="04-25-NE" duration="600" parking="true"/>
	</trip>
	<trip id="t69" depart="690" from="01-23-NW" to="03-23-SE">
		 <stop index="0" parkingArea="26-01-NW" duration="600" parking="true"/>
	</trip>
	<trip id="t70" depart="700" from="26-00-NE" to="03-27-NW">
		 <stop index="0" parkingArea="03-25-NE" duration="600" parking="true"/>
	</trip>
	<trip id="t71" depart="710" from="26-00-NE" to="04-27-NW">
		 <stop index="0" parkingArea="27-02-NW" duration="600" parking="true"/>
	</trip>
	<trip id="t72" depart="720" from="01-23-NW" to="27-00-SW">
		 <stop index="0" parkingArea="04-25-NE" duration="600" parking="true"/>
	</trip>
	<trip id="t73" depart="730" from="01-23-NW" to="27-04-NE">
		 <stop index="0" parkingArea="24-01-SE" duration="600" parking="true"/>
	</trip>
	<trip id="t74" depart="740" from="01-23-NW" to="25-00-SW">
		 <stop index="0" parkingArea="25-01-NW" duration="600" parking="true"/>
	</trip>
	<trip id="t75" depart="750" from="25-00-NE" to="04-27-NW">
		 <stop index="0" parkingArea="27-01-SE" duration="600" parking="true"/>
	</trip>
	<trip id="t76" depart="760" from="03-23-NW" to="24-04-NE">
		 <stop index="0" parkingArea="27-01-NW" duration="600" parking="true"/>
	</trip>
	<trip id="t77" depart="770" from="27-04-SW" to="27-00-SW">
		 <stop index="0" parkingArea="27-02-SE" duration="600" parking="true"/>
	</trip>
	<trip id="t78" depart="780" from="01-27-SE" to="03-27-NW">
		 <stop index="0" parkingArea="27-03-NW" duration="600" parking="true"/>
	</trip>
	<trip id="t79" depart="790" from="04-23-NW" to="02-23-SE">
		 <stop index="0" parkingArea="03-26-SW" duration="600" parking="true"/>
	</trip>
	<trip id="t80" depart="800" from="03-23-NW" to="26-04-NE">
		 <stop index="0" parkingArea="27-01-SE" duration="600" parking="true"/>
	</trip>
	<trip id="t81" depart="810" from="25-00-NE" to="27-00-SW">
		 <stop index="0" parkingArea="26-02-SE" duration="600" parking="true"/>
	</trip>
	<trip id="t82" depart="820" from="02-27-SE" to="01-23-SE">
		 <stop index="0" parkingArea="04-24-NE" duration="600" parking="true"/>
	</trip>
	<trip id="t83" depart="830" from="26-00-NE" to="04-27-NW">
		 <stop index="0" parkingArea="02-26-SW" duration="600" parking="true"/>
	</trip>
	<trip id="t84" depart="840" from="25-00-NE" to="01-23-SE">
		 <stop index="0" parkingArea="26-01-SE" duration="600" parking="true"/>
	</trip>
	<trip id="t85" depart="850" from="25-00-NE" to="25-00-SW">
		 <stop index="0" parkingArea="03-25-SW" duration="600" parking="true"/>
	</trip>
	<trip id="t86" depart="860" from="03-27-SE" to="25-00-SW">
		 <stop index="0" parkingArea="04-25-NE" duration="600" parking="true"/>
	</trip>
	<trip id="t87" depart="870" from="01-27-SE" to="26-04-NE">
		 <stop index="0" parkingArea="02-26-SW" duration="600" parking="true"/>
	</trip>
	<trip id="t88" depart="880" from="03-27-SE" to="27-04-NE">
		 <stop index="0" parkingArea="26-01-SE" duration="600" parking="true"/>
	</trip>
	<trip id="t89" depart="890" from="26-00-NE" to="27-04-NE">
		 <stop index="0" parkingArea="02-26-NE" duration="600" parking="true"/>
	</trip>
	<trip id="t90" depart="900" from="26-00-NE" to="01-27-NW">
		 <stop index="0" parkingArea="02-26-SW" duration="600" parking="true"/>
	</trip>
	<trip id="t91" depart="910" from="03-23-NW" to="24-04-NE">
		 <stop index="0" parkingArea="24-01-SE" duration="600" parking="true"/>
	</trip>
	<trip id="t92" depart="920" from="27-04-SW" to="01-27-NW">
		 <stop index="0" parkingArea="02-26-NE" duration="600" parking="true"/>
	</trip>
	<trip id="t93" depart="930" from="01-27-SE" to="25-00-SW">
		 <stop index="0" parkingArea="03-25-NE" duration="600" parking="true"/>
	</trip>
	<trip id="t94" depart="940" from="01-27-SE" to="27-00-SW">
		 <stop index="0" parkingArea="27-03-NW" duration="600" parking="true"/>
	</trip>
	<trip id="t95" depart="950" from="01-23-NW" to="03-23-SE">
		 <stop index="0" parkingArea="04-24-SW" duration="600" parking="true"/>
	</trip>
	<trip id="t96" depart="960" from="01-27-SE" to="02-23-SE">
		 <stop index="0" parkingArea="03-25-NE" duration="600" parking="true"/>
	</trip>
	<trip id="t97" depart="970" from="02-27-SE" to="01-23-SE">
		 <stop index="0" parkingArea="26-02-SE" duration="600" parking="true"/>
	</trip>
	<trip id="t98" depart="980" from="04-23-NW" to="04-27-NW">
		 <stop index="0" parkingArea="27-02-NW" duration="600" parking="true"/>
	</trip>
	<trip id="t99" depart="990" from="04-23-NW" to="04-27-NW">
		 <stop index="0" parkingArea="03-25-SW" duration="600" parking="true"/>
	</trip>
	<trip id="t100" depart="1000" from="03-27-SE" to="03-23-SE">
		 <stop index="0" parkingArea="02-26-SW" duration="600" parking="true"/>
	</trip>
	<trip id="t101" depart="1010" from="01-23-NW" to="01-27-NW">
		 <stop index="0" parkingArea="03-25-SW" duration="600" parking="true"/>
	</trip>
	<trip id="t102" depart="1020" from="27-00-NE" to="27-00-SW">
		 <stop index="0" parkingArea="27-01-NW" duration="600" parking="true"/>
	</trip>
	<trip id="t103" depart="1030" from="01-23-NW" to="24-04-NE">
		 <stop index="0" parkingArea="25-01-NW" duration="600" parking="true"/>
	</trip>
	<trip id="t104" depart="1040" from="01-27-SE" to="03-27-NW">
		 <stop index="0" parkingArea="26-01-NW" duration="600" parking="true"/>
	</trip>
	<trip id="t105" depart="1050" from="03-27-SE" to="02-23-SE">
		 <stop index="0" parkingArea="03-26-SW" duration="600" parking="true"/>
	</trip>
	<trip id="t106" depart="1060" from="25-00-NE" to="27-04-NE">
		 <stop index="0" parkingArea="01-26-SW" duration="600" parking="true"/>
	</trip>
	<trip id="t107" depart="1070" from="26-00-NE" to="27-00-SW">
		 <stop index="0" parkingArea="26-03-NW" duration="600" parking="true"/>
	</trip>
	<trip id="t108" depart="1080" from="04-23-NW" to="01-27-NW">
		 <stop index="0" parkingArea="27-03-SE" duration="600" parking="true"/>
	</trip>
	<trip id="t109" depart="1090" from="26-00-NE" to="26-04-NE">
		 <stop index="0" parkingArea="26-03-SE" duration="600" parking="true"/>
	</trip>
	<trip id="t110" depart="1100" from="03-27-SE" to="04-27-NW">
		 <stop index="0" parkingArea="04-26-NE" duration="600" parking="true"/>
	</trip>
	<trip id="t111" depart="1110" from="01-23-NW" to="27-04-NE">
		 <stop index="0" parkingArea="27-01-SE" duration="600" parking="true"/>
	</trip>
	<trip id="t112" depart="1120" from="26-00-NE" to="03-27-NW">
		 <stop index="0" parkingArea="01-24-NE" duration="600" parking="true"/>
	</trip>
	<trip id="t113" depart="1130" from="03-27-SE" to="25-00-SW">
		 <stop index="0" parkingArea="26-01-NW" duration="600" parking="true"/>
	</trip>
	<trip id="t114" depart="1140" from="01-23-NW" to="01-23-SE">
		 <stop index="0" parkingArea="27-02-SE" duration="600" parking="true"/>
	</trip>
	<trip id="t115" depart="1150" from="03-23-NW" to="25-00-SW">
		 <stop index="0" parkingArea="02-26-NE" duration="600" parking="true"/>
	</trip>
	<trip id="t116" depart="1160" from="04-23-NW" to="27-04-NE">
		 <stop index="0" parkingArea="02-25-NE" duration="600" parking="true"/>
	</trip>
	<trip id="t117" depart="1170" from="01-27-SE" to="26-04-NE">
		 <stop index="0" parkingArea="27-02-NW" duration="600" parking="true"/>
	</trip>
	<trip id="t118" depart="1180" from="03-23-NW" to="04-27-NW">
		 <stop index="0" parkingArea="04-25-SW" duration="600" parking="true"/>
	</trip>
	<trip id="t119" depart="1190" from="25-00-NE" to="24-04-NE">
		 <stop index="0" parkingArea="25-02-NW" duration="600" parking="true"/>
	</trip>
	<trip id="t120" depart="1200" from="04-23-NW" to="27-00-SW">
		 <stop index="0" parkingArea="26-02-NW" duration="600" parking="true"/>
	</trip>
	<trip id="t121" depart="1210" from="27-00-NE" to="27-00-SW">
		 <stop index="0" parkingArea="03-25-NE" duration="600" parking="true"/>
	</trip>
	<trip id="t122" depart="1220" from="03-23-NW" to="01-23-SE">
		 <stop index="0" parkingArea="25-01-NW" duration="600" parking="true"/>
	</trip>
	<trip id="t123" depart="1230" from="03-23-NW" to="04-27-NW">
		 <stop index="0" parkingArea="26-02-NW" duration="600" parking="true"/>
	</trip>
	<trip id="t124" depart="1240" from="25-00-NE" to="03-27-NW">
		 <stop index="0" parkingArea="27-02-NW" duration="600" parking="true"/>
	</trip>
	<trip id="t125" depart="1250" from="02-27-SE" to="01-23-SE">
		 <stop index="0" parkingArea="26-03-SE" duration="600" parking="true"/>
	</trip>
	<trip id="t126" depart="1260" from="03-27-SE" to="25-00-SW">
		 <stop index="0" parkingArea="03-25-SW" duration="600" parking="true"/>
	</trip>
	<trip id="t127" depart="1270" from="27-00-NE" to="26-04-NE">
		 <stop index="0" parkingArea="04-24-SW" duration="600" parking="true"/>
	</trip>
	<trip id="t128" depart="1280" from="04-23-NW" to="02-23-SE">
		 <stop index="0" parkingArea="04-25-SW" duration="600" parking="true"/>
	</trip>
	<trip id="t129" depart="1290" from="27-00-NE" to="24-04-NE">
		 <stop index="0" parkingArea="01-24-NE" duration="600" parking="true"/>
	</trip>
	<trip id="t130" depart="1300" from="01-23-NW" to="03-23-SE">
		 <stop index="0" parkingArea="04-26-SW" duration="600" parking="true"/>
	</trip>
	<trip id="t131" depart="1310" from="01-23-NW" to="02-23-SE">
		 <stop index="0" parkingArea="25-01-NW" duration="600" parking="true"/>
	</trip>
	<trip id="t132" depart="1320" from="01-27-SE" to="26-04-NE">
		 <stop index="0" parkingArea="24-03-NW" duration="600" parking="true"/>
	</trip>
	<trip id="t133" depart="1330" from="02-27-SE" to="01-23-SE">
		 <stop index="0" parkingArea="27-03-SE" duration="600" parking="true"/>
	</trip>
	<trip id="t134" depart="1340" from="27-04-SW" to="02-23-SE">
		 <stop index="0" parkingArea="01-24-SW" duration="600" parking="true"/>
	</trip>
	<trip id="t135" depart="1350" from="27-04-SW" to="25-00-SW">
		 <stop index="0" parkingArea="02-26-NE" duration="600" parking="true"/>
	</trip>
	<trip id="t136" depart="1360" from="27-00-NE" to="24-04-NE">
		 <stop index="0" parkingArea="04-26-NE" duration="600" parking="true"/>
	</trip>
	<trip id="t137" depart="1370" from="01-23-NW" to="24-04-NE">
		 <stop index="0" parkingArea="02-25-SW" duration="600" parking="true"/>
	</trip>
	<trip id="t138" depart="1380" from="03-27-SE" to="04-27-NW">
		 <stop index="0" parkingArea="03-25-NE" duration="600" parking="true"/>
	</trip>
	<trip id="t139" depart="1390" from="01-23-NW" to="01-23-SE">
		 <stop index="0" parkingArea="27-01-SE" duration="600" parking="true"/>
	</trip>
	<trip id="t140" depart="1400" from="25-00-NE" to="27-00-SW">
		 <stop index="0" parkingArea="26-02-NW" duration="600" parking="true"/>
	</trip>
	<trip id="t141" depart="1410" from="04-23-NW" to="03-27-NW">
		 <stop index="0" parkingArea="24-01-NW" duration="600" parking="true"/>
	</trip>
	<trip id="t142" depart="1420" from="02-27-SE" to="27-04-NE">
		 <stop index="0" parkingArea="04-24-SW" duration="600" parking="true"/>
	</trip>
	<trip id="t143" depart="1430" from="03-23-NW" to="25-00-SW">
		 <stop index="0" parkingArea="04-24-NE" duration="600" parking="true"/>
	</trip>
	<trip id="t144" depart="1440" from="03-23-NW" to="03-27-NW">
		 <stop index="0" parkingArea="04-25-SW" duration="600" parking="true"/>
	</trip>
	<trip id="t145" depart="1450" from="03-27-SE" to="01-27-NW">
		 <stop index="0" parkingArea="01-24-SW" duration="600" parking="true"/>
	</trip>
	<trip id="t146" depart="1460" from="01-23-NW" to="24-04-NE">
		 <stop index="0" parkingArea="04-26-NE" duration="600" parking="true"/>
	</trip>
	<trip id="t147" depart="1470" from="25-00-NE" to="01-27-NW">
		 <stop index="0" parkingArea="02-25-NE" duration="600" parking="true"/>
	</trip>
	<trip id="t148" depart="1480" from="27-04-SW" to="25-00-SW">
		 <stop index="0" parkingArea="26-03-NW" duration="600" parking="true"/>
	</trip>
	<trip id="t149" depart="1490" from="27-04-SW" to="03-27-NW">
		 <stop index="0" parkingArea="04-25-NE" duration="600" parking="true"/>
	</trip>
	<trip id="t150" depart="1500" from="02-27-SE" to="01-27-NW">
		 <stop index="0" parkingArea="27-03-SE" duration="600" parking="true"/>
	</trip>
	<trip id="t151" depart="1510" from="02-27-SE" to="03-23-SE">
		 <stop index="0" parkingArea="01-25-NE" duration="600" parking="true"/>
	</trip>
	<trip id="t152" depart="1520" from="26-00-NE" to="03-27-NW">
		 <stop index="0" parkingArea="04-24-NE" duration="600" parking="true"/>
	</trip>
	<trip id="t153" depart="1530" from="25-00-NE" to="03-23-SE">
		 <stop index="0" parkingArea="04-24-SW" duration="600" parking="true"/>
	</trip>
	<trip id="t154" depart="1540" from="27-04-SW" to="24-04-NE">
		 <stop index="0" parkingArea="04-26-NE" duration="600" parking="true"/>
	</trip>
	<trip id="t155" depart="1550" from="25-00-NE" to="01-23-SE">
		 <stop index="0" parkingArea="03-25-SW" duration="600" parking="true"/>
	</trip>
	<trip id="t156" depart="1560" from="01-27-SE" to="02-23-SE">
		 <stop index="0" parkingArea="02-24-NE" duration="600" parking="true"/>
	</trip>
	<trip id="t157" depart="1570" from="01-27-SE" to="27-00-SW">
		 <stop index="0" parkingArea="03-24-SW" duration="600" parking="true"/>
	</trip>
	<trip id="t158" depart="1580" from="27-04-SW" to="02-23-SE">
		 <stop index="0" parkingArea="01-25-NE" duration="600" parking="true"/>
	</trip>
	<trip id="t159" depart="1590" from="03-23-NW" to="25-00-SW">
		 <stop index="0" parkingArea="24-03-NW" duration="600" parking="true"/>
	</trip>
	<trip id="t160" depart="1600" from="02-27-SE" to="24-04-NE">
		 <stop index="0" parkingArea="03-24-NE" duration="600" parking="true"/>
	</trip>
	<trip id="t161" depart="1610" from="27-00-NE" to="03-23-SE">
		 <stop index="0" parkingArea="27-01-NW" duration="600" parking="true"/>
	</trip>
	<trip id="t162" depart="1620" from="03-27-SE" to="03-27-NW">
		 <stop index="0" parkingArea="24-01-NW" duration="600" parking="true"/>
	</trip>
	<trip id="t163" depart="1630" from="01-27-SE" to="24-04-NE">
		 <stop index="0" parkingArea="27-02-SE" duration="600" parking="true"/>
	</trip>
	<trip id="t164" depart="1640" from="02-27-SE" to="25-00-SW">
		 <stop index="0" parkingArea="24-01-SE" duration="600" parking="true"/>
	</trip>
	<trip id="t165" depart="1650" from="26-00-NE" to="02-23-SE">
		 <stop index="0" parkingArea="24-02-NW" duration="600" parking="true"/>
	</trip>
	<trip id="t166" depart="1660" from="27-00-NE" to="01-23-SE">
		 <stop index="0" parkingArea="25-02-NW" duration="600" parking="true"/>
	</trip>
	<trip id="t167" depart="1670" from="01-23-NW" to="27-00-SW">
		 <stop index="0" parkingArea="01-26-SW" duration="600" parking="true"/>
	</trip>
	<trip id="t168" depart="1680" from="26-00-NE" to="04-27-NW">
		 <stop index="0" parkingArea="27-02-SE" duration="600" parking="true"/>
	</trip>
	<trip id="t169" depart="1690" from="03-23-NW" to="24-04-NE">
		 <stop index="0" parkingArea="26-02-NW" duration="600" parking="true"/>
	</trip>
	<trip id="t170" depart="1700" from="03-23-NW" to="03-23-SE">
		 <stop index="0" parkingArea="02-26-NE" duration="600" parking="true"/>
	</trip>
	<trip id="t171" depart="1710" from="25-00-NE" to="01-27-NW">
		 <stop index="0" parkingArea="04-24-SW" duration="600" parking="true"/>
	</trip>
	<trip id="t172" depart="1720" from="27-04-SW" to="27-00-SW">
		 <stop index="0" parkingArea="24-01-NW" duration="600" parking="true"/>
	</trip>
	<trip id="t173" depart="1730" from="26-00-NE" to="27-00-SW">
		 <stop index="0" parkingArea="01-26-SW" duration="600" parking="true"/>
	</trip>
	<trip id="t174" depart="1740" from="26-00-NE" to="24-04-NE">
		 <stop index="0" parkingArea="27-01-SE" duration="600" parking="true"/>
	</trip>
	<trip id="t175" depart="1750" from="27-00-NE" to="03-27-NW">
		 <stop index="0" parkingArea="01-25-SW" duration="600" parking="true"/>
	</trip>
	<trip id="t176" depart="1760" from="25-00-NE" to="26-04-NE">
		 <stop index="0" parkingArea="04-24-SW" duration="600" parking="true"/>
	</trip>
	<trip id="t177" depart="1770" from="25-00-NE" to="01-27-NW">
		 <stop index="0" parkingArea="26-02-SE" duration="600" parking="true"/>
	</trip>
	<trip id="t178" depart="1780" from="26-00-NE" to="02-23-SE">
		 <stop index="0" parkingArea="27-03-NW" duration="600" parking="true"/>
	</trip>
	<trip id="t179" depart="1790" from="03-23-NW" to="01-27-NW">
		 <stop index="0" parkingArea="01-24-SW" duration="600" parking="true"/>
	</trip>
	<trip id="t180" depart="1800" from="02-27-SE" to="04-27-NW">
		 <stop index="0" parkingArea="25-03-NW" duration="600" parking="true"/>
	</trip>
	<trip id="t181" depart="1810" from="03-23-NW" to="25-00-SW">
		 <stop index="0" parkingArea="24-02-SE" duration="600" parking="true"/>
	</trip>
	<trip id="t182" depart="1820" from="26-00-NE" to="25-00-SW">
		 <stop index="0" parkingArea="26-01-SE" duration="600" parking="true"/>
	</trip>
	<trip id="t183" depart="1830" from="26-00-NE" to="24-04-NE">
		 <stop index="0" parkingArea="01-24-SW" duration="600" parking="true"/>
	</trip>
	<trip id="t184" depart="1840" from="26-00-NE" to="27-04-NE">
		 <stop index="0" parkingArea="26-03-SE" duration="600" parking="true"/>
	</trip>
	<trip id="t185" depart="1850" from="01-27-SE" to="27-04-NE">
		 <stop index="0" parkingArea="26-02-NW" duration="600" parking="true"/>
	</trip>
	<trip id="t186" depart="1860" from="02-27-SE" to="26-04-NE">
		 <stop index="0" parkingArea="02-26-SW" duration="600" parking="true"/>
	</trip>
	<trip id="t187" depart="1870" from="01-27-SE" to="01-27-NW">
		 <stop index="0" parkingArea="03-26-SW" duration="600" parking="true"/>
	</trip>
	<trip id="t188" depart="1880" from="26-00-NE" to="27-04-NE">
		 <stop index="0" parkingArea="03-25-NE" duration="600" parking="true"/>
	</trip>
	<trip id="t189" depart="1890" from="27-00-NE" to="01-23-SE">
		 <stop index="0" parkingArea="26-01-SE" duration="600" parking="true"/>
	</trip>
	<trip id="t190" depart="1900" from="27-00-NE" to="02-23-SE">
		 <stop index="0" parkingArea="02-26-NE" duration="600" parking="true"/>
	</trip>
	<trip id="t191" depart="1910" from="26-00-NE" to="24-04-NE">
		 <stop index="0" parkingArea="27-01-NW" duration="600" parking="true"/>
	</trip>
	<trip id="t192" depart="1920" from="04-23-NW" to="03-27-NW">
		 <stop index="0" parkingArea="01-25-NE" duration="600" parking="true"/>
	</trip>
	<trip id="t193" depart="1930" from="03-23-NW" to="01-23-SE">
		 <stop index="0" parkingArea="27-01-SE" duration="600" parking="true"/>
	</trip>
	<trip id="t194" depart="1940" from="27-04-SW" to="04-27-NW">
		 <stop index="0" parkingArea="01-24-SW" duration="600" parking="true"/>
	</trip>
	<trip id="t195" depart="1950" from="27-00-NE" to="03-23-SE">
		 <stop index="0" parkingArea="26-01-SE" duration="600" parking="true"/>
	</trip>
	<trip id="t196" depart="1960" from="02-27-SE" to="01-27-NW">
		 <stop index="0" parkingArea="24-01-NW" duration="600" parking="true"/>
	</trip>
	<trip id="t197" depart="1970" from="26-00-NE" to="26-04-NE">
		 <stop index="0" parkingArea="24-01-SE" duration="600" parking="true"/>
	</trip>
	<trip id="t198" depart="1980" from="03-23-NW" to="03-23-SE">
		 <stop index="0" parkingArea="27-01-SE" duration="600" parking="true"/>
	</trip>
	<trip id="t199" depart="1990" from="01-23-NW" to="03-23-SE">
		 <stop index="0" parkingArea="25-01-NW" duration="600" parking="true"/>
	</trip>
	<trip id="t200" depart="2000" from="02-27-SE" to="04-27-NW">
		 <stop index="0" parkingArea="02-26-SW" duration="600" parking="true"/>
	</trip>