<?xml version="1.0" encoding="UTF-8"?>
              <routes xmlns:xsi="http://www.w3.org/2001/XMLSchema-instance" xsi:noNamespaceSchemaLocation="http://sumo.dlr.de/xsd/routes_file.xsd">
              
	<vType id="psg" vClass="passenger" guiShape="passenger/sedan" color="255,183,59"></vType>

    <vType id="pass" vClass="passenger" guiShape="passenger/hatchback" color="192,192,192"></vType>

    <vType id="dlv" vClass="delivery" guiShape="truck" color="245,39,224" length="6.0" width="3"></vType>
          
	<flow id="f200" begin="0" end="3600" number="200" from="01-23-NW" to="01-27-NW" type="pass"/>
	<flow id="f201" begin="0" end="3600" number="200" from="25-00-NE" to="26-04-NE" type="pass"/>
	<flow id="f202" begin="0" end="3600" number="200" from="26-00-NE" to="26-04-NE" type="pass"/>
	<flow id="f203" begin="0" end="3600" number="200" from="27-00-NE" to="27-04-NE" type="pass"/>
	<flow id="f204" begin="0" end="3600" number="200" from="01-27-SE" to="01-23-SE" type="pass"/>
	<flow id="f205" begin="0" end="3600" number="200" from="02-27-SE" to="02-23-SE" type="pass"/>
	<flow id="f206" begin="0" end="3600" number="200" from="03-27-SE" to="03-23-SE" type="pass"/>
	<flow id="f207" begin="0" end="3600" number="200" from="27-04-SW" to="27-00-SW" type="pass"/>
	<flow id="f208" begin="0" end="3600" number="200" from="04-23-NW" to="04-27-NW" type="pass"/>
	<flow id="f209" begin="0" end="3600" number="200" from="03-23-NW" to="03-27-NW" type="pass"/>
	<trip id="exist_g60_0" depart="0" to="27-00-SW" type="psg">
        <stop index="0" parkingArea="01-25-SW" duration="3600" parking="true"/>
    </trip>
	<trip id="exist_g60_1" depart="0" to="01-27-NW" type="psg">
        <stop index="0" parkingArea="03-26-SW" duration="3600" parking="true"/>
    </trip>
	<trip id="exist_g60_2" depart="0" to="01-27-NW" type="psg">
        <stop index="0" parkingArea="03-26-SW" duration="3600" parking="true"/>
    </trip>
	<trip id="exist_g60_3" depart="0" to="03-23-SE" type="psg">
        <stop index="0" parkingArea="27-03-SE" duration="3600" parking="true"/>
    </trip>
	<trip id="exist_g60_4" depart="0" to="27-00-SW" type="psg">
        <stop index="0" parkingArea="01-26-SW" duration="3600" parking="true"/>
    </trip>
	<trip id="exist_g60_5" depart="0" to="03-23-SE" type="psg">
        <stop index="0" parkingArea="03-25-SW" duration="3600" parking="true"/>
    </trip>
	<trip id="exist_g60_6" depart="0" to="26-04-NE" type="psg">
        <stop index="0" parkingArea="25-01-NW" duration="3600" parking="true"/>
    </trip>
	<trip id="exist_g60_7" depart="0" to="25-00-SW" type="psg">
        <stop index="0" parkingArea="24-03-SE" duration="3600" parking="true"/>
    </trip>
	<trip id="exist_g60_8" depart="0" to="03-23-SE" type="psg">
        <stop index="0" parkingArea="02-24-SW" duration="3600" parking="true"/>
    </trip>
	<trip id="exist_g60_9" depart="0" to="24-04-NE" type="psg">
        <stop index="0" parkingArea="02-25-SW" duration="3600" parking="true"/>
    </trip>
	<trip id="exist_g60_10" depart="0" to="24-04-NE" type="psg">
        <stop index="0" parkingArea="03-24-SW" duration="3600" parking="true"/>
    </trip>
	<trip id="exist_g60_11" depart="0" to="01-23-SE" type="psg">
        <stop index="0" parkingArea="24-01-SE" duration="3600" parking="true"/>
    </trip>
	<trip id="exist_g60_12" depart="0" to="01-27-NW" type="psg">
        <stop index="0" parkingArea="24-02-SE" duration="3600" parking="true"/>
    </trip>
	<trip id="exist_g60_13" depart="0" to="03-27-NW" type="psg">
        <stop index="0" parkingArea="02-25-SW" duration="3600" parking="true"/>
    </trip>
	<trip id="exist_g60_14" depart="0" to="04-27-NW" type="psg">
        <stop index="0" parkingArea="04-25-NE" duration="3600" parking="true"/>
    </trip>
	<trip id="exist_g60_15" depart="0" to="27-00-SW" type="psg">
        <stop index="0" parkingArea="25-02-NW" duration="3600" parking="true"/>
    </trip>
	<trip id="exist_g60_16" depart="0" to="01-27-NW" type="psg">
        <stop index="0" parkingArea="03-24-SW" duration="3600" parking="true"/>
    </trip>
	<trip id="exist_g60_17" depart="0" to="27-00-SW" type="psg">
        <stop index="0" parkingArea="01-25-SW" duration="3600" parking="true"/>
    </trip>
	<trip id="exist_g60_18" depart="0" to="04-27-NW" type="psg">
        <stop index="0" parkingArea="03-25-NE" duration="3600" parking="true"/>
    </trip>
	<trip id="exist_g60_19" depart="0" to="02-23-SE" type="psg">
        <stop index="0" parkingArea="04-25-NE" duration="3600" parking="true"/>
    </trip>
	<trip id="exist_g60_20" depart="0" to="24-04-NE" type="psg">
        <stop index="0" parkingArea="03-25-SW" duration="3600" parking="true"/>
    </trip>
	<trip id="exist_g60_21" depart="0" to="27-04-NE" type="psg">
        <stop index="0" parkingArea="02-25-SW" duration="3600" parking="true"/>
    </trip>
	<trip id="exist_g60_22" depart="0" to="04-27-NW" type="psg">
        <stop index="0" parkingArea="01-25-NE" duration="3600" parking="true"/>
    </trip>
	<trip id="exist_g60_23" depart="0" to="03-23-SE" type="psg">
        <stop index="0" parkingArea="24-03-SE" duration="3600" parking="true"/>
    </trip>
	<trip id="exist_g60_24" depart="0" to="01-27-NW" type="psg">
        <stop index="0" parkingArea="02-25-SW" duration="3600" parking="true"/>
    </trip>
	<trip id="exist_g60_25" depart="0" to="01-23-SE" type="psg">
        <stop index="0" parkingArea="26-01-SE" duration="3600" parking="true"/>
    </trip>
	<trip id="exist_g60_26" depart="0" to="27-00-SW" type="psg">
        <stop index="0" parkingArea="03-25-NE" duration="3600" parking="true"/>
    </trip>
	<trip id="exist_g60_27" depart="0" to="01-23-SE" type="psg">
        <stop index="0" parkingArea="03-24-NE" duration="3600" parking="true"/>
    </trip>
	<trip id="exist_g60_28" depart="0" to="03-27-NW" type="psg">
        <stop index="0" parkingArea="04-24-NE" duration="3600" parking="true"/>
    </trip>
	<trip id="exist_g60_29" depart="0" to="01-23-SE" type="psg">
        <stop index="0" parkingArea="27-01-NW" duration="3600" parking="true"/>
    </trip>
	<trip id="exist_g60_30" depart="0" to="04-27-NW" type="psg">
        <stop index="0" parkingArea="26-01-SE" duration="3600" parking="true"/>
    </trip>
	<trip id="exist_g60_31" depart="0" to="03-23-SE" type="psg">
        <stop index="0" parkingArea="24-03-SE" duration="3600" parking="true"/>
    </trip>
	<trip id="exist_g60_32" depart="0" to="27-04-NE" type="psg">
        <stop index="0" parkingArea="27-03-NW" duration="3600" parking="true"/>
    </trip>
	<trip id="exist_g60_33" depart="0" to="03-27-NW" type="psg">
        <stop index="0" parkingArea="01-25-SW" duration="3600" parking="true"/>
    </trip>
	<trip id="exist_g60_34" depart="0" to="25-00-SW" type="psg">
        <stop index="0" parkingArea="04-25-NE" duration="3600" parking="true"/>
    </trip>
	<trip id="exist_g60_35" depart="0" to="01-23-SE" type="psg">
        <stop index="0" parkingArea="02-25-SW" duration="3600" parking="true"/>
    </trip>
	<trip id="exist_g60_36" depart="0" to="04-27-NW" type="psg">
        <stop index="0" parkingArea="01-24-NE" duration="3600" parking="true"/>
    </trip>
	<trip id="exist_g60_37" depart="0" to="01-23-SE" type="psg">
        <stop index="0" parkingArea="02-24-SW" duration="3600" parking="true"/>
    </trip>
	<trip id="exist_g60_38" depart="0" to="01-27-NW" type="psg">
        <stop index="0" parkingArea="03-25-SW" duration="3600" parking="true"/>
    </trip>
	<trip id="exist_g60_39" depart="0" to="25-00-SW" type="psg">
        <stop index="0" parkingArea="25-01-NW" duration="3600" parking="true"/>
    </trip>
	<trip id="exist_g60_40" depart="0" to="04-27-NW" type="psg">
        <stop index="0" parkingArea="27-02-SE" duration="3600" parking="true"/>
    </trip>
	<trip id="exist_g60_41" depart="0" to="01-27-NW" type="psg">
        <stop index="0" parkingArea="02-26-SW" duration="3600" parking="true"/>
    </trip>
	<trip id="exist_g60_42" depart="0" to="03-27-NW" type="psg">
        <stop index="0" parkingArea="01-25-SW" duration="3600" parking="true"/>
    </trip>
	<trip id="exist_g60_43" depart="0" to="02-23-SE" type="psg">
        <stop index="0" parkingArea="27-01-NW" duration="3600" parking="true"/>
    </trip>
	<trip id="exist_g60_44" depart="0" to="02-23-SE" type="psg">
        <stop index="0" parkingArea="01-24-NE" duration="3600" parking="true"/>
    </trip>
	<trip id="exist_g60_45" depart="0" to="24-04-NE" type="psg">
        <stop index="0" parkingArea="24-02-SE" duration="3600" parking="true"/>
    </trip>
	<trip id="exist_g60_46" depart="0" to="03-27-NW" type="psg">
        <stop index="0" parkingArea="04-26-NE" duration="3600" parking="true"/>
    </trip>
	<trip id="exist_g60_47" depart="0" to="25-00-SW" type="psg">
        <stop index="0" parkingArea="02-25-SW" duration="3600" parking="true"/>
    </trip>
	<trip id="exist_g60_48" depart="0" to="01-23-SE" type="psg">
        <stop index="0" parkingArea="03-24-NE" duration="3600" parking="true"/>
    </trip>
	<trip id="exist_g60_49" depart="0" to="24-04-NE" type="psg">
        <stop index="0" parkingArea="03-25-SW" duration="3600" parking="true"/>
    </trip>
	<trip id="exist_g60_50" depart="0" to="25-00-SW" type="psg">
        <stop index="0" parkingArea="25-03-NW" duration="3600" parking="true"/>
    </trip>
	<trip id="exist_g60_51" depart="0" to="25-00-SW" type="psg">
        <stop index="0" parkingArea="27-03-NW" duration="3600" parking="true"/>
    </trip>
	<trip id="exist_g60_52" depart="0" to="03-27-NW" type="psg">
        <stop index="0" parkingArea="24-02-SE" duration="3600" parking="true"/>
    </trip>
	<trip id="exist_g60_53" depart="0" to="26-04-NE" type="psg">
        <stop index="0" parkingArea="27-01-SE" duration="3600" parking="true"/>
    </trip>
	<trip id="exist_g60_54" depart="0" to="27-00-SW" type="psg">
        <stop index="0" parkingArea="26-03-SE" duration="3600" parking="true"/>
    </trip>
	<trip id="exist_g60_55" depart="0" to="01-23-SE" type="psg">
        <stop index="0" parkingArea="27-03-SE" duration="3600" parking="true"/>
    </trip>
	<trip id="exist_g60_56" depart="0" to="03-27-NW" type="psg">
        <stop index="0" parkingArea="04-24-NE" duration="3600" parking="true"/>
    </trip>
	<trip id="exist_g60_57" depart="0" to="27-00-SW" type="psg">
        <stop index="0" parkingArea="27-03-SE" duration="3600" parking="true"/>
    </trip>
	<trip id="exist_g60_58" depart="0" to="26-04-NE" type="psg">
        <stop index="0" parkingArea="24-02-SE" duration="3600" parking="true"/>
    </trip>
	<trip id="exist_g60_59" depart="0" to="26-04-NE" type="psg">
        <stop index="0" parkingArea="01-26-SW" duration="3600" parking="true"/>
    </trip>
	<trip id="exist_g60_60" depart="0" to="25-00-SW" type="psg">
        <stop index="0" parkingArea="04-24-NE" duration="3600" parking="true"/>
    </trip>
	<trip id="exist_g60_61" depart="0" to="02-23-SE" type="psg">
        <stop index="0" parkingArea="25-01-NW" duration="3600" parking="true"/>
    </trip>
	<trip id="exist_g60_62" depart="0" to="01-27-NW" type="psg">
        <stop index="0" parkingArea="02-26-SW" duration="3600" parking="true"/>
    </trip>
	<trip id="exist_g60_63" depart="0" to="27-04-NE" type="psg">
        <stop index="0" parkingArea="27-02-SE" duration="3600" parking="true"/>
    </trip>
	<trip id="exist_g60_64" depart="0" to="04-27-NW" type="psg">
        <stop index="0" parkingArea="03-24-NE" duration="3600" parking="true"/>
    </trip>
	<trip id="exist_g60_65" depart="0" to="25-00-SW" type="psg">
        <stop index="0" parkingArea="24-02-SE" duration="3600" parking="true"/>
    </trip>
	<trip id="exist_g60_66" depart="0" to="01-27-NW" type="psg">
        <stop index="0" parkingArea="01-25-SW" duration="3600" parking="true"/>
    </trip>
	<trip id="exist_g60_67" depart="0" to="02-23-SE" type="psg">
        <stop index="0" parkingArea="01-26-SW" duration="3600" parking="true"/>
    </trip>
	<trip id="exist_g60_68" depart="0" to="24-04-NE" type="psg">
        <stop index="0" parkingArea="01-24-NE" duration="3600" parking="true"/>
    </trip>
	<trip id="exist_g60_69" depart="0" to="02-23-SE" type="psg">
        <stop index="0" parkingArea="04-25-NE" duration="3600" parking="true"/>
    </trip>
	<trip id="exist_g60_70" depart="0" to="03-23-SE" type="psg">
        <stop index="0" parkingArea="04-25-NE" duration="3600" parking="true"/>
    </trip>
	<trip id="exist_g60_71" depart="0" to="01-23-SE" type="psg">
        <stop index="0" parkingArea="27-01-NW" duration="3600" parking="true"/>
    </trip>
	<trip id="exist_g60_72" depart="0" to="03-27-NW" type="psg">
        <stop index="0" parkingArea="02-25-SW" duration="3600" parking="true"/>
    </trip>
	<trip id="exist_g60_73" depart="0" to="01-27-NW" type="psg">
        <stop index="0" parkingArea="04-26-NE" duration="3600" parking="true"/>
    </trip>
	<trip id="exist_g60_74" depart="0" to="03-23-SE" type="psg">
        <stop index="0" parkingArea="27-02-SE" duration="3600" parking="true"/>
    </trip>
	<trip id="exist_g60_75" depart="0" to="03-27-NW" type="psg">
        <stop index="0" parkingArea="01-24-NE" duration="3600" parking="true"/>
    </trip>
	<trip id="exist_g60_76" depart="0" to="04-27-NW" type="psg">
        <stop index="0" parkingArea="27-02-SE" duration="3600" parking="true"/>
    </trip>
	<trip id="exist_g60_77" depart="0" to="24-04-NE" type="psg">
        <stop index="0" parkingArea="01-24-SW" duration="3600" parking="true"/>
    </trip>
	<trip id="exist_g60_78" depart="0" to="03-27-NW" type="psg">
        <stop index="0" parkingArea="01-25-NE" duration="3600" parking="true"/>
    </trip>
	<trip id="exist_g60_79" depart="0" to="01-23-SE" type="psg">
        <stop index="0" parkingArea="04-25-NE" duration="3600" parking="true"/>
    </trip>
	<trip id="exist_g60_80" depart="0" to="25-00-SW" type="psg">
        <stop index="0" parkingArea="04-25-NE" duration="3600" parking="true"/>
    </trip>
	<trip id="exist_g60_81" depart="0" to="24-04-NE" type="psg">
        <stop index="0" parkingArea="25-02-NW" duration="3600" parking="true"/>
    </trip>
	<trip id="exist_g60_82" depart="0" to="04-27-NW" type="psg">
        <stop index="0" parkingArea="04-25-NE" duration="3600" parking="true"/>
    </trip>
	<trip id="exist_g60_83" depart="0" to="03-27-NW" type="psg">
        <stop index="0" parkingArea="01-24-NE" duration="3600" parking="true"/>
    </trip>
	<trip id="exist_g60_84" depart="0" to="27-04-NE" type="psg">
        <stop index="0" parkingArea="03-25-SW" duration="3600" parking="true"/>
    </trip>
	<trip id="exist_g60_85" depart="0" to="03-23-SE" type="psg">
        <stop index="0" parkingArea="01-24-SW" duration="3600" parking="true"/>
    </trip>
	<trip id="exist_g60_86" depart="0" to="26-04-NE" type="psg">
        <stop index="0" parkingArea="01-24-SW" duration="3600" parking="true"/>
    </trip>
	<trip id="exist_g60_87" depart="0" to="02-23-SE" type="psg">
        <stop index="0" parkingArea="01-24-NE" duration="3600" parking="true"/>
    </trip>
	<trip id="exist_g60_88" depart="0" to="26-04-NE" type="psg">
        <stop index="0" parkingArea="25-02-NW" duration="3600" parking="true"/>
    </trip>
	<trip id="exist_g60_89" depart="0" to="04-27-NW" type="psg">
        <stop index="0" parkingArea="26-02-SE" duration="3600" parking="true"/>
    </trip>
	<trip id="exist_g60_90" depart="0" to="02-23-SE" type="psg">
        <stop index="0" parkingArea="02-25-SW" duration="3600" parking="true"/>
    </trip>
	<trip id="exist_g60_91" depart="0" to="25-00-SW" type="psg">
        <stop index="0" parkingArea="03-25-SW" duration="3600" parking="true"/>
    </trip>
	<trip id="exist_g60_92" depart="0" to="27-04-NE" type="psg">
        <stop index="0" parkingArea="01-24-NE" duration="3600" parking="true"/>
    </trip>
	<trip id="exist_g60_93" depart="0" to="25-00-SW" type="psg">
        <stop index="0" parkingArea="27-03-NW" duration="3600" parking="true"/>
    </trip>
	<trip id="exist_g60_94" depart="0" to="03-23-SE" type="psg">
        <stop index="0" parkingArea="03-24-SW" duration="3600" parking="true"/>
    </trip>
	<trip id="exist_g60_95" depart="0" to="27-04-NE" type="psg">
        <stop index="0" parkingArea="03-25-NE" duration="3600" parking="true"/>
    </trip>
	<trip id="exist_g60_96" depart="0" to="27-04-NE" type="psg">
        <stop index="0" parkingArea="25-01-SE" duration="3600" parking="true"/>
    </trip>
	<trip id="exist_g60_97" depart="0" to="03-23-SE" type="psg">
        <stop index="0" parkingArea="24-02-SE" duration="3600" parking="true"/>
    </trip>
	<trip id="exist_g60_98" depart="0" to="03-23-SE" type="psg">
        <stop index="0" parkingArea="27-01-NW" duration="3600" parking="true"/>
    </trip>
	<trip id="exist_l60_0" depart="0" to="01-27-NW" type="psg">
        <stop index="0" parkingArea="26-02-SE" duration="300" parking="true"/>
    </trip>
	<trip id="exist_l60_1" depart="0" to="03-23-SE" type="psg">
        <stop index="0" parkingArea="03-25-SW" duration="60" parking="true"/>
    </trip>
	<trip id="exist_l60_2" depart="0" to="26-04-NE" type="psg">
        <stop index="0" parkingArea="25-01-SE" duration="1440" parking="true"/>
    </trip>
	<trip id="exist_l60_3" depart="0" to="01-27-NW" type="psg">
        <stop index="0" parkingArea="27-03-SE" duration="2940" parking="true"/>
    </trip>
	<trip id="exist_l60_4" depart="0" to="27-04-NE" type="psg">
        <stop index="0" parkingArea="01-25-NE" duration="0" parking="true"/>
    </trip>
	<trip id="exist_l60_5" depart="0" to="01-23-SE" type="psg">
        <stop index="0" parkingArea="27-02-NW" duration="1980" parking="true"/>
    </trip>
	<trip id="exist_l60_6" depart="0" to="01-27-NW" type="psg">
        <stop index="0" parkingArea="04-24-NE" duration="960" parking="true"/>
    </trip>
	<trip id="exist_l60_7" depart="0" to="04-27-NW" type="psg">
        <stop index="0" parkingArea="24-02-SE" duration="1020" parking="true"/>
    </trip>
	<trip id="exist_l60_8" depart="0" to="27-00-SW" type="psg">
        <stop index="0" parkingArea="26-03-SE" duration="1920" parking="true"/>
    </trip>
	<trip id="exist_l60_9" depart="0" to="03-23-SE" type="psg">
        <stop index="0" parkingArea="03-25-SW" duration="1200" parking="true"/>
    </trip>
	<trip id="exist_l60_10" depart="0" to="03-23-SE" type="psg">
        <stop index="0" parkingArea="03-24-NE" duration="3240" parking="true"/>
    </trip>
	<trip id="exist_l60_11" depart="0" to="02-23-SE" type="psg">
        <stop index="0" parkingArea="27-01-SE" duration="1860" parking="true"/>
    </trip>
	<trip id="exist_l60_12" depart="0" to="01-23-SE" type="psg">
        <stop index="0" parkingArea="03-25-SW" duration="60" parking="true"/>
    </trip>
	<trip id="exist_l60_13" depart="0" to="01-27-NW" type="psg">
        <stop index="0" parkingArea="27-02-SE" duration="2220" parking="true"/>
    </trip>
	<trip id="exist_l60_14" depart="0" to="24-04-NE" type="psg">
        <stop index="0" parkingArea="04-26-NE" duration="2700" parking="true"/>
    </trip>
	<trip id="exist_l60_15" depart="0" to="04-27-NW" type="psg">
        <stop index="0" parkingArea="25-01-SE" duration="2880" parking="true"/>
    </trip>
	<trip id="exist_l60_16" depart="0" to="03-23-SE" type="psg">
        <stop index="0" parkingArea="01-24-NE" duration="1680" parking="true"/>
    </trip>
	<trip id="exist_l60_17" depart="0" to="24-04-NE" type="psg">
        <stop index="0" parkingArea="27-01-SE" duration="1980" parking="true"/>
    </trip>
	<trip id="exist_l60_18" depart="0" to="01-23-SE" type="psg">
        <stop index="0" parkingArea="25-02-NW" duration="1380" parking="true"/>
    </trip>
	<trip id="exist_l60_19" depart="0" to="27-04-NE" type="psg">
        <stop index="0" parkingArea="26-03-SE" duration="1080" parking="true"/>
    </trip>
	<trip id="exist_l60_20" depart="0" to="27-04-NE" type="psg">
        <stop index="0" parkingArea="27-01-SE" duration="1020" parking="true"/>
    </trip>
	<trip id="exist_l60_21" depart="0" to="04-27-NW" type="psg">
        <stop index="0" parkingArea="26-01-SE" duration="3540" parking="true"/>
    </trip>
	<trip id="exist_l60_22" depart="0" to="03-27-NW" type="psg">
        <stop index="0" parkingArea="26-03-SE" duration="3420" parking="true"/>
    </trip>
	<trip id="exist_l60_23" depart="0" to="03-23-SE" type="psg">
        <stop index="0" parkingArea="24-01-SE" duration="3180" parking="true"/>
    </trip>
	<trip id="exist_l60_24" depart="0" to="25-00-SW" type="psg">
        <stop index="0" parkingArea="04-24-NE" duration="360" parking="true"/>
    </trip>
	<trip id="exist_l60_25" depart="0" to="01-23-SE" type="psg">
        <stop index="0" parkingArea="26-02-SE" duration="1260" parking="true"/>
    </trip>
	<trip id="exist_l60_26" depart="0" to="02-23-SE" type="psg">
        <stop index="0" parkingArea="26-01-SE" duration="2880" parking="true"/>
    </trip>
	<trip id="exist_l60_27" depart="0" to="01-23-SE" type="psg">
        <stop index="0" parkingArea="27-02-NW" duration="540" parking="true"/>
    </trip>
	<trip id="exist_l60_28" depart="0" to="01-27-NW" type="psg">
        <stop index="0" parkingArea="02-26-SW" duration="1260" parking="true"/>
    </trip>
	<trip id="exist_l60_29" depart="0" to="02-23-SE" type="psg">
        <stop index="0" parkingArea="03-24-NE" duration="1200" parking="true"/>
    </trip>
	<trip id="exist_l60_30" depart="0" to="03-23-SE" type="psg">
        <stop index="0" parkingArea="24-02-SE" duration="180" parking="true"/>
    </trip>
	<trip id="exist_l60_31" depart="0" to="03-27-NW" type="psg">
        <stop index="0" parkingArea="04-24-NE" duration="3480" parking="true"/>
    </trip>
	<trip id="exist_l60_32" depart="0" to="25-00-SW" type="psg">
        <stop index="0" parkingArea="26-02-SE" duration="2400" parking="true"/>
    </trip>
	<trip id="exist_l60_33" depart="0" to="24-04-NE" type="psg">
        <stop index="0" parkingArea="03-24-NE" duration="840" parking="true"/>
    </trip>
	<trip id="exist_l60_34" depart="0" to="25-00-SW" type="psg">
        <stop index="0" parkingArea="27-01-SE" duration="3540" parking="true"/>
    </trip>
	<trip id="exist_l60_35" depart="0" to="02-23-SE" type="psg">
        <stop index="0" parkingArea="26-01-SE" duration="1740" parking="true"/>
    </trip>
	<trip id="exist_l60_36" depart="0" to="03-27-NW" type="psg">
        <stop index="0" parkingArea="25-01-SE" duration="3540" parking="true"/>
    </trip>
	<trip id="exist_l60_37" depart="0" to="04-27-NW" type="psg">
        <stop index="0" parkingArea="03-24-NE" duration="60" parking="true"/>
    </trip>
	<trip id="exist_l60_38" depart="0" to="26-04-NE" type="psg">
        <stop index="0" parkingArea="25-01-NW" duration="2700" parking="true"/>
    </trip>
	<trip id="exist_l60_39" depart="0" to="03-27-NW" type="psg">
        <stop index="0" parkingArea="27-03-SE" duration="2340" parking="true"/>
    </trip>
	<trip id="exist_l60_40" depart="0" to="01-23-SE" type="psg">
        <stop index="0" parkingArea="04-26-NE" duration="2400" parking="true"/>
    </trip>
	<trip id="exist_l60_41" depart="0" to="03-27-NW" type="psg">
        <stop index="0" parkingArea="26-03-SE" duration="1260" parking="true"/>
    </trip>
	<trip id="exist_l60_42" depart="0" to="03-23-SE" type="psg">
        <stop index="0" parkingArea="27-03-SE" duration="1800" parking="true"/>
    </trip>
	<trip id="exist_l60_43" depart="0" to="27-00-SW" type="psg">
        <stop index="0" parkingArea="25-02-NW" duration="1620" parking="true"/>
    </trip>
	<trip id="exist_l60_44" depart="0" to="03-27-NW" type="psg">
        <stop index="0" parkingArea="24-01-SE" duration="2160" parking="true"/>
    </trip>
	<trip id="exist_l60_45" depart="0" to="01-23-SE" type="psg">
        <stop index="0" parkingArea="24-02-SE" duration="300" parking="true"/>
    </trip>
	<trip id="exist_l60_46" depart="0" to="24-04-NE" type="psg">
        <stop index="0" parkingArea="26-02-SE" duration="120" parking="true"/>
    </trip>
	<trip id="exist_l60_47" depart="0" to="01-27-NW" type="psg">
        <stop index="0" parkingArea="24-02-SE" duration="480" parking="true"/>
    </trip>
	<trip id="exist_l60_48" depart="0" to="03-27-NW" type="psg">
        <stop index="0" parkingArea="27-01-NW" duration="2700" parking="true"/>
    </trip>
	<trip id="exist_l60_49" depart="0" to="03-27-NW" type="psg">
        <stop index="0" parkingArea="24-01-SE" duration="1800" parking="true"/>
    </trip>
	<trip id="exist_l60_50" depart="0" to="02-23-SE" type="psg">
        <stop index="0" parkingArea="24-02-SE" duration="240" parking="true"/>
    </trip>
	<trip id="exist_l60_51" depart="0" to="03-27-NW" type="psg">
        <stop index="0" parkingArea="25-02-NW" duration="2760" parking="true"/>
    </trip>
	<trip id="exist_l60_52" depart="0" to="24-04-NE" type="psg">
        <stop index="0" parkingArea="03-25-NE" duration="3540" parking="true"/>
    </trip>
	<trip id="exist_l60_53" depart="0" to="03-23-SE" type="psg">
        <stop index="0" parkingArea="26-03-SE" duration="720" parking="true"/>
    </trip>
	<trip id="exist_l60_54" depart="0" to="04-27-NW" type="psg">
        <stop index="0" parkingArea="26-02-SE" duration="2880" parking="true"/>
    </trip>
	<trip id="exist_l60_55" depart="0" to="26-04-NE" type="psg">
        <stop index="0" parkingArea="27-02-NW" duration="780" parking="true"/>
    </trip>
	<trip id="exist_l60_56" depart="0" to="03-27-NW" type="psg">
        <stop index="0" parkingArea="27-03-NW" duration="0" parking="true"/>
    </trip>
	<trip id="exist_l60_57" depart="0" to="03-23-SE" type="psg">
        <stop index="0" parkingArea="04-26-NE" duration="1200" parking="true"/>
    </trip>
	<trip id="exist_l60_58" depart="0" to="24-04-NE" type="psg">
        <stop index="0" parkingArea="02-24-SW" duration="60" parking="true"/>
    </trip>
	<trip id="exist_l60_59" depart="0" to="26-04-NE" type="psg">
        <stop index="0" parkingArea="24-01-SE" duration="3540" parking="true"/>
    </trip>
	<trip id="exist_l60_60" depart="0" to="27-00-SW" type="psg">
        <stop index="0" parkingArea="25-01-SE" duration="1800" parking="true"/>
    </trip>
	<trip id="exist_l60_61" depart="0" to="26-04-NE" type="psg">
        <stop index="0" parkingArea="27-01-NW" duration="720" parking="true"/>
    </trip>
	<trip id="exist_l60_62" depart="0" to="27-04-NE" type="psg">
        <stop index="0" parkingArea="04-26-NE" duration="2040" parking="true"/>
    </trip>
	<trip id="exist_l60_63" depart="0" to="25-00-SW" type="psg">
        <stop index="0" parkingArea="25-01-SE" duration="3540" parking="true"/>
    </trip>
	<trip id="exist_l60_64" depart="0" to="27-00-SW" type="psg">
        <stop index="0" parkingArea="26-02-SE" duration="2400" parking="true"/>
    </trip>
	<trip id="exist_l60_65" depart="0" to="03-27-NW" type="psg">
        <stop index="0" parkingArea="02-25-SW" duration="2160" parking="true"/>
    </trip>
	<trip id="exist_l60_66" depart="0" to="02-23-SE" type="psg">
        <stop index="0" parkingArea="03-24-SW" duration="3120" parking="true"/>
    </trip>
	<trip id="exist_l60_67" depart="0" to="03-23-SE" type="psg">
        <stop index="0" parkingArea="02-26-SW" duration="2880" parking="true"/>
    </trip>
	<trip id="exist_l60_68" depart="0" to="03-23-SE" type="psg">
        <stop index="0" parkingArea="04-25-NE" duration="60" parking="true"/>
    </trip>
	<trip id="exist_l60_69" depart="0" to="27-00-SW" type="psg">
        <stop index="0" parkingArea="27-01-NW" duration="2520" parking="true"/>
    </trip>
	<trip id="exist_l60_70" depart="0" to="03-23-SE" type="psg">
        <stop index="0" parkingArea="04-25-NE" duration="1500" parking="true"/>
    </trip>
	<trip id="exist_l60_71" depart="0" to="01-27-NW" type="psg">
        <stop index="0" parkingArea="02-26-SW" duration="840" parking="true"/>
    </trip>
	<trip id="exist_l60_72" depart="0" to="27-04-NE" type="psg">
        <stop index="0" parkingArea="25-03-NW" duration="60" parking="true"/>
    </trip>
	<trip id="exist_l60_73" depart="0" to="01-27-NW" type="psg">
        <stop index="0" parkingArea="02-24-SW" duration="180" parking="true"/>
    </trip>
	<trip id="exist_l60_74" depart="0" to="26-04-NE" type="psg">
        <stop index="0" parkingArea="03-25-SW" duration="3300" parking="true"/>
    </trip>
	<trip id="psg_0" depart="71" from="26-00-NE" to="27-00-SW" type="psg">
        <stop index="0" parkingArea="27-02-SE" duration="3600" parking="true"/>
    </trip>
	<trip id="psg_1" depart="80" from="27-04-SW" to="01-23-SE" type="psg">
        <stop index="0" parkingArea="24-01-SE" duration="3600" parking="true"/>
    </trip>
	<trip id="dlv_2" depart="97" from="26-00-NE" to="04-27-NW" type="dlv">
        <stop index="0" parkingArea="02-26-SW" duration="180" parking="true"/>
    </trip>
	<trip id="psg_3" depart="99" from="01-23-NW" to="27-04-NE" type="psg">
        <stop index="0" parkingArea="04-25-NE" duration="3600" parking="true"/>
    </trip>
	<trip id="psg_4" depart="101" from="25-00-NE" to="26-04-NE" type="psg">
        <stop index="0" parkingArea="01-24-NE" duration="3600" parking="true"/>
    </trip>
	<trip id="dlv_5" depart="103" from="27-00-NE" to="24-04-NE" type="dlv">
        <stop index="0" parkingArea="03-25-SW" duration="180" parking="true"/>
    </trip>
	<trip id="dlv_6" depart="115" from="03-27-SE" to="24-04-NE" type="dlv">
        <stop index="0" parkingArea="03-24-SW" duration="180" parking="true"/>
    </trip>
	<trip id="psg_7" depart="140" from="01-23-NW" to="01-23-SE" type="psg">
        <stop index="0" parkingArea="27-02-SE" duration="3600" parking="true"/>
    </trip>
	<trip id="psg_8" depart="149" from="27-00-NE" to="24-04-NE" type="psg">
        <stop index="0" parkingArea="02-26-SW" duration="3600" parking="true"/>
    </trip>
	<trip id="dlv_9" depart="192" from="27-00-NE" to="03-27-NW" type="dlv">
        <stop index="0" parkingArea="01-24-SW" duration="180" parking="true"/>
    </trip>
	<trip id="dlv_10" depart="196" from="27-04-SW" to="01-27-NW" type="dlv">
        <stop index="0" parkingArea="01-25-NE" duration="180" parking="true"/>