<?xml version="1.0" encoding="UTF-8"?>
	          <routes xmlns:xsi="http://www.w3.org/2001/XMLSchema-instance" xsi:noNamespaceSchemaLocation="http://sumo.dlr.de/xsd/routes_file.xsd">
	          
	<vType id="passenger" vClass="passenger"></vType>
	<flow id="f200" begin="0" end="2400" number="3" from="01-23-NW" to="01-27-NW"/>
	<flow id="f201" begin="0" end="2400" number="3" from="25-00-NE" to="26-04-NE"/>
	<flow id="f202" begin="0" end="2400" number="3" from="26-00-NE" to="26-04-NE"/>
	<flow id="f203" begin="0" end="2400" number="3" from="27-00-NE" to="27-04-NE"/>
	<flow id="f204" begin="0" end="2400" number="3" from="01-27-SE" to="01-23-SE"/>
	<flow id="f205" begin="0" end="2400" number="3" from="02-27-SE" to="02-23-SE"/>
	<flow id="f206" begin="0" end="2400" number="3" from="03-27-SE" to="03-23-SE"/>
	<flow id="f207" begin="0" end="2400" number="3" from="27-04-SW" to="27-00-SW"/>
	<flow id="f208" begin="0" end="2400" number="3" from="04-23-NW" to="04-27-NW"/>
	<flow id="f209" begin="0" end="2400" number="3" from="03-23-NW" to="03-27-NW"/>
	<trip id="e_g60_0" depart="0" to="27-00-SW">
			 <stop index="0" parkingArea="01-24-SW" duration="3600" parking="true"/>
		</trip>
	<trip id="e_g60_1" depart="0" to="25-00-SW">
			 <stop index="0" parkingArea="26-03-NW" duration="3600" parking="true"/>
		</trip>
	<trip id="e_g60_2" depart="0" to="27-04-NE">
			 <stop index="0" parkingArea="26-02-NW" duration="3600" parking="true"/>
		</trip>
	<trip id="e_g60_3" depart="0" to="04-27-NW">
			 <stop index="0" parkingArea="27-03-SE" duration="3600" parking="true"/>
		</trip>
	<trip id="e_g60_4" depart="0" to="27-00-SW">
			 <stop index="0" parkingArea="02-25-SW" duration="3600" parking="true"/>
		</trip>
	<trip id="e_g60_5" depart="0" to="01-23-SE">
			 <stop index="0" parkingArea="26-01-NW" duration="3600" parking="true"/>
		</trip>
	<trip id="e_g60_6" depart="0" to="27-04-NE">
			 <stop index="0" parkingArea="26-03-NW" duration="3600" parking="true"/>
		</trip>
	<trip id="e_g60_7" depart="0" to="01-27-NW">
			 <stop index="0" parkingArea="25-01-NW" duration="3600" parking="true"/>
		</trip>
	<trip id="e_g60_8" depart="0" to="01-23-SE">
			 <stop index="0" parkingArea="27-03-SE" duration="3600" parking="true"/>
		</trip>
	<trip id="e_g60_9" depart="0" to="01-23-SE">
			 <stop index="0" parkingArea="26-01-SE" duration="3600" parking="true"/>
		</trip>
	<trip id="e_g60_10" depart="0" to="27-00-SW">
			 <stop index="0" parkingArea="01-24-NE" duration="3600" parking="true"/>
		</trip>
	<trip id="e_g60_11" depart="0" to="03-23-SE">
			 <stop index="0" parkingArea="25-01-SE" duration="3600" parking="true"/>
		</trip>
	<trip id="e_g60_12" depart="0" to="27-04-NE">
			 <stop index="0" parkingArea="24-01-NW" duration="3600" parking="true"/>
		</trip>
	<trip id="e_g60_13" depart="0" to="02-23-SE">
			 <stop index="0" parkingArea="26-02-NW" duration="3600" parking="true"/>
		</trip>
	<trip id="e_g60_14" depart="0" to="04-27-NW">
			 <stop index="0" parkingArea="04-26-SW" duration="3600" parking="true"/>
		</trip>
	<trip id="e_g60_15" depart="0" to="03-23-SE">
			 <stop index="0" parkingArea="26-03-NW" duration="3600" parking="true"/>
		</trip>
	<trip id="e_g60_16" depart="0" to="04-27-NW">
			 <stop index="0" parkingArea="02-25-NE" duration="3600" parking="true"/>
		</trip>
	<trip id="e_g60_17" depart="0" to="02-23-SE">
			 <stop index="0" parkingArea="24-02-NW" duration="3600" parking="true"/>
		</trip>
	<trip id="e_g60_18" depart="0" to="01-27-NW">
			 <stop index="0" parkingArea="03-25-NE" duration="3600" parking="true"/>
		</trip>
	<trip id="e_g60_19" depart="0" to="27-04-NE">
			 <stop index="0" parkingArea="01-24-NE" duration="3600" parking="true"/>
		</trip>
	<trip id="e_g60_20" depart="0" to="03-27-NW">
			 <stop index="0" parkingArea="27-02-NW" duration="3600" parking="true"/>
		</trip>
	<trip id="e_g60_21" depart="0" to="26-04-NE">
			 <stop index="0" parkingArea="26-01-NW" duration="3600" parking="true"/>
		</trip>
	<trip id="e_g60_22" depart="0" to="03-27-NW">
			 <stop index="0" parkingArea="25-02-NW" duration="3600" parking="true"/>
		</trip>
	<trip id="e_g60_23" depart="0" to="02-23-SE">
			 <stop index="0" parkingArea="26-01-SE" duration="3600" parking="true"/>
		</trip>
	<trip id="e_g60_24" depart="0" to="24-04-NE">
			 <stop index="0" parkingArea="04-25-SW" duration="3600" parking="true"/>
		</trip>
	<trip id="e_g60_25" depart="0" to="03-27-NW">
			 <stop index="0" parkingArea="25-01-SE" duration="3600" parking="true"/>
		</trip>
	<trip id="e_g60_26" depart="0" to="01-27-NW">
			 <stop index="0" parkingArea="27-03-NW" duration="3600" parking="true"/>
		</trip>
	<trip id="e_g60_27" depart="0" to="01-23-SE">
			 <stop index="0" parkingArea="03-24-SW" duration="3600" parking="true"/>
		</trip>
	<trip id="e_g60_28" depart="0" to="25-00-SW">
			 <stop index="0" parkingArea="26-01-SE" duration="3600" parking="true"/>
		</trip>
	<trip id="e_g60_29" depart="0" to="02-23-SE">
			 <stop index="0" parkingArea="27-03-SE" duration="3600" parking="true"/>
		</trip>
	<trip id="e_g60_30" depart="0" to="02-23-SE">
			 <stop index="0" parkingArea="26-03-SE" duration="3600" parking="true"/>
		</trip>
	<trip id="e_g60_31" depart="0" to="01-23-SE">
			 <stop index="0" parkingArea="24-02-SE" duration="3600" parking="true"/>
		</trip>
	<trip id="e_g60_32" depart="0" to="03-27-NW">
			 <stop index="0" parkingArea="27-01-SE" duration="3600" parking="true"/>
		</trip>
	<trip id="e_g60_33" depart="0" to="03-23-SE">
			 <stop index="0" parkingArea="01-26-SW" duration="3600" parking="true"/>
		</trip>
	<trip id="e_g60_34" depart="0" to="04-27-NW">
			 <stop index="0" parkingArea="03-26-SW" duration="3600" parking="true"/>
		</trip>
	<trip id="e_g60_35" depart="0" to="27-04-NE">
			 <stop index="0" parkingArea="27-03-NW" duration="3600" parking="true"/>
		</trip>
	<trip id="e_g60_36" depart="0" to="25-00-SW">
			 <stop index="0" parkingArea="27-02-SE" duration="3600" parking="true"/>
		</trip>
	<trip id="e_g60_37" depart="0" to="04-27-NW">
			 <stop index="0" parkingArea="25-01-NW" duration="3600" parking="true"/>
		</trip>
	<trip id="e_g60_38" depart="0" to="04-27-NW">
			 <stop index="0" parkingArea="02-26-NE" duration="3600" parking="true"/>
		</trip>
	<trip id="e_g60_39" depart="0" to="27-04-NE">
			 <stop index="0" parkingArea="24-03-NW" duration="3600" parking="true"/>
		</trip>
	<trip id="e_g60_40" depart="0" to="27-00-SW">
			 <stop index="0" parkingArea="03-24-NE" duration="3600" parking="true"/>
		</trip>
	<trip id="e_g60_41" depart="0" to="25-00-SW">
			 <stop index="0" parkingArea="27-01-SE" duration="3600" parking="true"/>
		</trip>
	<trip id="e_g60_42" depart="0" to="27-04-NE">
			 <stop index="0" parkingArea="24-01-SE" duration="3600" parking="true"/>
		</trip>
	<trip id="e_g60_43" depart="0" to="04-27-NW">
			 <stop index="0" parkingArea="25-01-NW" duration="3600" parking="true"/>
		</trip>
	<trip id="e_g60_44" depart="0" to="27-04-NE">
			 <stop index="0" parkingArea="26-02-SE" duration="3600" parking="true"/>
		</trip>
	<trip id="e_g60_45" depart="0" to="03-23-SE">
			 <stop index="0" parkingArea="02-26-NE" duration="3600" parking="true"/>
		</trip>
	<trip id="e_g60_46" depart="0" to="03-23-SE">
			 <stop index="0" parkingArea="04-24-SW" duration="3600" parking="true"/>
		</trip>
	<trip id="e_g60_47" depart="0" to="03-23-SE">
			 <stop index="0" parkingArea="02-26-SW" duration="3600" parking="true"/>
		</trip>
	<trip id="e_g60_48" depart="0" to="25-00-SW">
			 <stop index="0" parkingArea="26-01-SE" duration="3600" parking="true"/>
		</trip>
	<trip id="e_g60_49" depart="0" to="01-27-NW">
			 <stop index="0" parkingArea="04-25-NE" duration="3600" parking="true"/>
		</trip>
	<trip id="e_g60_50" depart="0" to="03-27-NW">
			 <stop index="0" parkingArea="02-24-SW" duration="3600" parking="true"/>
		</trip>
	<trip id="e_g60_51" depart="0" to="27-00-SW">
			 <stop index="0" parkingArea="25-01-SE" duration="3600" parking="true"/>
		</trip>
	<trip id="e_g60_52" depart="0" to="27-00-SW">
			 <stop index="0" parkingArea="24-01-SE" duration="3600" parking="true"/>
		</trip>
	<trip id="e_g60_53" depart="0" to="03-23-SE">
			 <stop index="0" parkingArea="27-03-SE" duration="3600" parking="true"/>
		</trip>
	<trip id="e_g60_54" depart="0" to="24-04-NE">
			 <stop index="0" parkingArea="01-24-SW" duration="3600" parking="true"/>
		</trip>
	<trip id="e_g60_55" depart="0" to="24-04-NE">
			 <stop index="0" parkingArea="26-01-SE" duration="3600" parking="true"/>
		</trip>
	<trip id="e_g60_56" depart="0" to="02-23-SE">
			 <stop index="0" parkingArea="02-24-NE" duration="3600" parking="true"/>
		</trip>
	<trip id="e_g60_57" depart="0" to="27-04-NE">
			 <stop index="0" parkingArea="27-02-SE" duration="3600" parking="true"/>
		</trip>
	<trip id="e_g60_58" depart="0" to="27-04-NE">
			 <stop index="0" parkingArea="27-01-SE" duration="3600" parking="true"/>
		</trip>
	<trip id="e_g60_59" depart="0" to="01-27-NW">
			 <stop index="0" parkingArea="03-25-NE" duration="3600" parking="true"/>
		</trip>
	<trip id="e_g60_60" depart="0" to="26-04-NE">
			 <stop index="0" parkingArea="03-25-NE" duration="3600" parking="true"/>
		</trip>
	<trip id="e_g60_61" depart="0" to="27-04-NE">
			 <stop index="0" parkingArea="24-01-NW" duration="3600" parking="true"/>
		</trip>
	<trip id="e_g60_62" depart="0" to="27-00-SW">
			 <stop index="0" parkingArea="01-26-SW" duration="3600" parking="true"/>
		</trip>
	<trip id="e_g60_63" depart="0" to="04-27-NW">
			 <stop index="0" parkingArea="26-02-NW" duration="3600" parking="true"/>
		</trip>
	<trip id="e_g60_64" depart="0" to="03-23-SE">
			 <stop index="0" parkingArea="24-02-NW" duration="3600" parking="true"/>
		</trip>
	<trip id="e_g60_65" depart="0" to="01-27-NW">
			 <stop index="0" parkingArea="26-01-SE" duration="3600" parking="true"/>
		</trip>
	<trip id="e_g60_66" depart="0" to="24-04-NE">
			 <stop index="0" parkingArea="01-25-SW" duration="3600" parking="true"/>
		</trip>
	<trip id="e_g60_67" depart="0" to="04-27-NW">
			 <stop index="0" parkingArea="04-26-NE" duration="3600" parking="true"/>
		</trip>
	<trip id="e_g60_68" depart="0" to="27-04-NE">
			 <stop index="0" parkingArea="26-03-NW" duration="3600" parking="true"/>
		</trip>
	<trip id="e_g60_69" depart="0" to="03-27-NW">
			 <stop index="0" parkingArea="24-01-SE" duration="3600" parking="true"/>
		</trip>
	<trip id="e_g60_70" depart="0" to="02-23-SE">
			 <stop index="0" parkingArea="03-25-SW" duration="3600" parking="true"/>
		</trip>
	<trip id="e_g60_71" depart="0" to="02-23-SE">
			 <stop index="0" parkingArea="26-03-NW" duration="3600" parking="true"/>
		</trip>
	<trip id="e_g60_72" depart="0" to="03-23-SE">
			 <stop index="0" parkingArea="03-24-NE" duration="3600" parking="true"/>
		</trip>
	<trip id="e_g60_73" depart="0" to="03-27-NW">
			 <stop index="0" parkingArea="04-24-SW" duration="3600" parking="true"/>
		</trip>
	<trip id="e_g60_74" depart="0" to="26-04-NE">
			 <stop index="0" parkingArea="24-01-NW" duration="3600" parking="true"/>
		</trip>
	<trip id="e_g60_75" depart="0" to="03-27-NW">
			 <stop index="0" parkingArea="04-24-SW" duration="3600" parking="true"/>
		</trip>
	<trip id="e_g60_76" depart="0" to="04-27-NW">
			 <stop index="0" parkingArea="04-24-NE" duration="3600" parking="true"/>
		</trip>
	<trip id="e_g60_77" depart="0" to="03-27-NW">
			 <stop index="0" parkingArea="01-24-SW" duration="3600" parking="true"/>
		</trip>
	<trip id="e_g60_78" depart="0" to="01-23-SE">
			 <stop index="0" parkingArea="25-01-NW" duration="3600" parking="true"/>
		</trip>
	<trip id="e_g60_79" depart="0" to="26-04-NE">
			 <stop index="0" parkingArea="25-02-NW" duration="3600" parking="true"/>
		</trip>
	<trip id="e_g60_80" depart="0" to="26-04-NE">
			 <stop index="0" parkingArea="04-25-SW" duration="3600" parking="true"/>
		</trip>
	<trip id="e_g60_81" depart="0" to="04-27-NW">
			 <stop index="0" parkingArea="02-24-NE" duration="3600" parking="true"/>
		</trip>
	<trip id="e_g60_82" depart="0" to="03-27-NW">
			 <stop index="0" parkingArea="03-24-NE" duration="3600" parking="true"/>
		</trip>
	<trip id="e_g60_83" depart="0" to="03-27-NW">
			 <stop index="0" parkingArea="25-02-SE" duration="3600" parking="true"/>
		</trip>
	<trip id="e_g60_84" depart="0" to="03-27-NW">
			 <stop index="0" parkingArea="02-26-SW" duration="3600" parking="true"/>
		</trip>
	<trip id="e_g60_85" depart="0" to="03-23-SE">
			 <stop index="0" parkingArea="04-25-NE" duration="3600" parking="true"/>
		</trip>
	<trip id="e_g60_86" depart="0" to="24-04-NE">
			 <stop index="0" parkingArea="26-02-SE" duration="3600" parking="true"/>
		</trip>
	<trip id="e_g60_87" depart="0" to="24-04-NE">
			 <stop index="0" parkingArea="02-26-NE" duration="3600" parking="true"/>
		</trip>
	<trip id="e_g60_88" depart="0" to="01-23-SE">
			 <stop index="0" parkingArea="25-02-SE" duration="3600" parking="true"/>
		</trip>
	<trip id="e_g60_89" depart="0" to="02-23-SE">
			 <stop index="0" parkingArea="04-26-SW" duration="3600" parking="true"/>
		</trip>
	<trip id="e_g60_90" depart="0" to="27-00-SW">
			 <stop index="0" parkingArea="04-24-SW" duration="3600" parking="true"/>
		</trip>
	<trip id="e_g60_91" depart="0" to="04-27-NW">
			 <stop index="0" parkingArea="03-25-SW" duration="3600" parking="true"/>
		</trip>
	<trip id="e_g60_92" depart="0" to="27-00-SW">
			 <stop index="0" parkingArea="24-01-NW" duration="3600" parking="true"/>
		</trip>
	<trip id="e_g60_93" depart="0" to="26-04-NE">
			 <stop index="0" parkingArea="02-25-NE" duration="3600" parking="true"/>
		</trip>
	<trip id="e_g60_94" depart="0" to="01-23-SE">
			 <stop index="0" parkingArea="25-01-SE" duration="3600" parking="true"/>
		</trip>
	<trip id="e_g60_95" depart="0" to="27-00-SW">
			 <stop index="0" parkingArea="26-02-NW" duration="3600" parking="true"/>
		</trip>
	<trip id="e_g60_96" depart="0" to="25-00-SW">
			 <stop index="0" parkingArea="03-24-SW" duration="3600" parking="true"/>
		</trip>
	<trip id="e_g60_97" depart="0" to="03-27-NW">
			 <stop index="0" parkingArea="01-26-SW" duration="3600" parking="true"/>
		</trip>
	<trip id="e_g60_98" depart="0" to="26-04-NE">
			 <stop index="0" parkingArea="01-25-NE" duration="3600" parking="true"/>
		</trip>
	<trip id="e_l60_0" depart="0" to="03-23-SE">
			 <stop index="0" parkingArea="01-25-SW" duration="840" parking="true"/>
		</trip>
	<trip id="e_l60_1" depart="0" to="03-27-NW">
			 <stop index="0" parkingArea="26-03-NW" duration="1860" parking="true"/>
		</trip>
	<trip id="e_l60_2" depart="0" to="04-27-NW">
			 <stop index="0" parkingArea="24-02-NW" duration="360" parking="true"/>
		</trip>
	<trip id="e_l60_3" depart="0" to="27-00-SW">
			 <stop index="0" parkingArea="04-26-NE" duration="1200" parking="true"/>
		</trip>
	<trip id="e_l60_4" depart="0" to="27-00-SW">
			 <stop index="0" parkingArea="03-24-SW" duration="2700" parking="true"/>
		</trip>
	<trip id="e_l60_5" depart="0" to="26-04-NE">
			 <stop index="0" parkingArea="25-01-SE" duration="1680" parking="true"/>
		</trip>
	<trip id="e_l60_6" depart="0" to="02-23-SE">
			 <stop index="0" parkingArea="25-03-NW" duration="660" parking="true"/>
		</trip>
	<trip id="e_l60_7" depart="0" to="26-04-NE">
			 <stop index="0" parkingArea="03-24-NE" duration="2640" parking="true"/>
		</trip>
	<trip id="e_l60_8" depart="0" to="03-23-SE">
			 <stop index="0" parkingArea="04-26-SW" duration="1440" parking="true"/>
		</trip>
	<trip id="e_l60_9" depart="0" to="02-23-SE">
			 <stop index="0" parkingArea="27-02-NW" duration="2760" parking="true"/>
		</trip>
	<trip id="e_l60_10" depart="0" to="27-04-NE">
			 <stop index="0" parkingArea="25-03-NW" duration="2280" parking="true"/>
		</trip>
	<trip id="e_l60_11" depart="0" to="03-27-NW">
			 <stop index="0" parkingArea="26-02-NW" duration="3120" parking="true"/>
		</trip>
	<trip id="e_l60_12" depart="0" to="27-00-SW">
			 <stop index="0" parkingArea="03-25-SW" duration="3420" parking="true"/>
		</trip>
	<trip id="e_l60_13" depart="0" to="25-00-SW">
			 <stop index="0" parkingArea="01-24-NE" duration="300" parking="true"/>
		</trip>
	<trip id="e_l60_14" depart="0" to="01-23-SE">
			 <stop index="0" parkingArea="26-01-SE" duration="180" parking="true"/>
		</trip>
	<trip id="e_l60_15" depart="0" to="03-27-NW">
			 <stop index="0" parkingArea="25-01-NW" duration="2460" parking="true"/>
		</trip>
	<trip id="e_l60_16" depart="0" to="02-23-SE">
			 <stop index="0" parkingArea="03-25-NE" duration="2940" parking="true"/>
		</trip>
	<trip id="e_l60_17" depart="0" to="25-00-SW">
			 <stop index="0" parkingArea="02-26-SW" duration="3540" parking="true"/>
		</trip>
	<trip id="e_l60_18" depart="0" to="24-04-NE">
			 <stop index="0" parkingArea="25-01-NW" duration="180" parking="true"/>
		</trip>
	<trip id="e_l60_19" depart="0" to="25-00-SW">
			 <stop index="0" parkingArea="27-01-NW" duration="1380" parking="true"/>
		</trip>
	<trip id="e_l60_20" depart="0" to="27-04-NE">
			 <stop index="0" parkingArea="25-01-NW" duration="3060" parking="true"/>
		</trip>
	<trip id="e_l60_21" depart="0" to="03-23-SE">
			 <stop index="0" parkingArea="02-24-SW" duration="1080" parking="true"/>
		</trip>
	<trip id="e_l60_22" depart="0" to="25-00-SW">
			 <stop index="0" parkingArea="24-01-NW" duration="3420" parking="true"/>
		</trip>
	<trip id="e_l60_23" depart="0" to="25-00-SW">
			 <stop index="0" parkingArea="27-01-NW" duration="1560" parking="true"/>
		</trip>
	<trip id="e_l60_24" depart="0" to="25-00-SW">
			 <stop index="0" parkingArea="02-26-NE" duration="0" parking="true"/>
		</trip>
	<trip id="e_l60_25" depart="0" to="27-00-SW">
			 <stop index="0" parkingArea="04-26-NE" duration="1920" parking="true"/>
		</trip>
	<trip id="e_l60_26" depart="0" to="26-04-NE">
			 <stop index="0" parkingArea="02-24-SW" duration="3480" parking="true"/>
		</trip>
	<trip id="e_l60_27" depart="0" to="04-27-NW">
			 <stop index="0" parkingArea="26-02-SE" duration="3060" parking="true"/>
		</trip>
	<trip id="e_l60_28" depart="0" to="04-27-NW">
			 <stop index="0" parkingArea="04-26-NE" duration="420" parking="true"/>
		</trip>
	<trip id="e_l60_29" depart="0" to="04-27-NW">
			 <stop index="0" parkingArea="03-25-NE" duration="1860" parking="true"/>
		</trip>
	<trip id="e_l60_30" depart="0" to="01-23-SE">
			 <stop index="0" parkingArea="25-01-NW" duration="1140" parking="true"/>
		</trip>
	<trip id="e_l60_31" depart="0" to="27-04-NE">
			 <stop index="0" parkingArea="04-26-NE" duration="1080" parking="true"/>
		</trip>
	<trip id="e_l60_32" depart="0" to="26-04-NE">
			 <stop index="0" parkingArea="04-25-NE" duration="3360" parking="true"/>
		</trip>
	<trip id="e_l60_33" depart="0" to="03-27-NW">
			 <stop index="0" parkingArea="27-03-NW" duration="2880" parking="true"/>
		</trip>
	<trip id="e_l60_34" depart="0" to="02-23-SE">
			 <stop index="0" parkingArea="24-02-SE" duration="1260" parking="true"/>
		</trip>
	<trip id="e_l60_35" depart="0" to="04-27-NW">
			 <stop index="0" parkingArea="27-02-NW" duration="1560" parking="true"/>
		</trip>
	<trip id="e_l60_36" depart="0" to="01-23-SE">
			 <stop index="0" parkingArea="01-26-SW" duration="1440" parking="true"/>
		</trip>
	<trip id="e_l60_37" depart="0" to="01-27-NW">
			 <stop index="0" parkingArea="25-02-NW" duration="2820" parking="true"/>
		</trip>
	<trip id="e_l60_38" depart="0" to="02-23-SE">
			 <stop index="0" parkingArea="27-01-SE" duration="60" parking="true"/>
		</trip>
	<trip id="e_l60_39" depart="0" to="27-04-NE">
			 <stop index="0" parkingArea="02-24-NE" duration="720" parking="true"/>
		</trip>
	<trip id="e_l60_40" depart="0" to="27-04-NE">
			 <stop index="0" parkingArea="02-24-NE" duration="2880" parking="true"/>
		</trip>
	<trip id="e_l60_41" depart="0" to="24-04-NE">
			 <stop index="0" parkingArea="02-25-NE" duration="3360" parking="true"/>
		</trip>
	<trip id="e_l60_42" depart="0" to="02-23-SE">
			 <stop index="0" parkingArea="03-25-SW" duration="300" parking="true"/>
		</trip>
	<trip id="e_l60_43" depart="0" to="25-00-SW">
			 <stop index="0" parkingArea="01-25-SW" duration="1140" parking="true"/>
		</trip>
	<trip id="e_l60_44" depart="0" to="01-27-NW">
			 <stop index="0" parkingArea="02-24-SW" duration="1740" parking="true"/>
		</trip>
	<trip id="e_l60_45" depart="0" to="01-23-SE">
			 <stop index="0" parkingArea="26-03-SE" duration="3180" parking="true"/>
		</trip>
	<trip id="e_l60_46" depart="0" to="25-00-SW">
			 <stop index="0" parkingArea="24-01-SE" duration="3060" parking="true"/>
		</trip>
	<trip id="e_l60_47" depart="0" to="25-00-SW">
			 <stop index="0" parkingArea="27-01-SE" duration="1860" parking="true"/>
		</trip>
	<trip id="e_l60_48" depart="0" to="02-23-SE">
			 <stop index="0" parkingArea="02-26-NE" duration="660" parking="true"/>
		</trip>
	<trip id="e_l60_49" depart="0" to="25-00-SW">
			 <stop index="0" parkingArea="26-01-NW" duration="720" parking="true"/>
		</trip>
	<trip id="e_l60_50" depart="0" to="27-04-NE">
			 <stop index="0" parkingArea="27-02-NW" duration="3240" parking="true"/>
		</trip>
	<trip id="e_l60_51" depart="0" to="01-23-SE">
			 <stop index="0" parkingArea="04-26-NE" duration="3240" parking="true"/>
		</trip>
	<trip id="e_l60_52" depart="0" to="25-00-SW">
			 <stop index="0" parkingArea="24-01-SE" duration="240" parking="true"/>
		</trip>
	<trip id="e_l60_53" depart="0" to="25-00-SW">
			 <stop index="0" parkingArea="25-01-SE" duration="780" parking="true"/>
		</trip>
	<trip id="e_l60_54" depart="0" to="01-23-SE">
			 <stop index="0" parkingArea="04-26-NE" duration="720" parking="true"/>
		</trip>
	<trip id="e_l60_55" depart="0" to="27-04-NE">
			 <stop index="0" parkingArea="02-26-SW" duration="540" parking="true"/>
		</trip>
	<trip id="e_l60_56" depart="0" to="27-00-SW">
			 <stop index="0" parkingArea="25-01-SE" duration="300" parking="true"/>
		</trip>
	<trip id="e_l60_57" depart="0" to="27-00-SW">
			 <stop index="0" parkingArea="24-01-SE" duration="1920" parking="true"/>
		</trip>
	<trip id="e_l60_58" depart="0" to="01-27-NW">
			 <stop index="0" parkingArea="04-25-SW" duration="1440" parking="true"/>
		</trip>
	<trip id="e_l60_59" depart="0" to="01-23-SE">
			 <stop index="0" parkingArea="04-24-NE" duration="0" parking="true"/>
		</trip>
	<trip id="e_l60_60" depart="0" to="01-27-NW">
			 <stop index="0" parkingArea="24-02-SE" duration="540" parking="true"/>
		</trip>
	<trip id="e_l60_61" depart="0" to="03-27-NW">
			 <stop index="0" parkingArea="25-02-NW" duration="1740" parking="true"/>
		</trip>
	<trip id="e_l60_62" depart="0" to="24-04-NE">
			 <stop index="0" parkingArea="02-25-NE" duration="1080" parking="true"/>
		</trip>
	<trip id="e_l60_63" depart="0" to="01-27-NW">
			 <stop index="0" parkingArea="26-01-NW" duration="1440" parking="true"/>
		</trip>
	<trip id="e_l60_64" depart="0" to="01-27-NW">
			 <stop index="0" parkingArea="27-02-NW" duration="3480" parking="true"/>
		</trip>
	<trip id="e_l60_65" depart="0" to="24-04-NE">
			 <stop index="0" parkingArea="24-01-NW" duration="2820" parking="true"/>
		</trip>
	<trip id="e_l60_66" depart="0" to="02-23-SE">
			 <stop index="0" parkingArea="25-01-NW" duration="1560" parking="true"/>
		</trip>
	<trip id="e_l60_67" depart="0" to="27-00-SW">
			 <stop index="0" parkingArea="24-02-NW" duration="1980" parking="true"/>
		</trip>
	<trip id="e_l60_68" depart="0" to="24-04-NE">
			 <stop index="0" parkingArea="24-03-NW" duration="1380" parking="true"/>
		</trip>
	<trip id="e_l60_69" depart="0" to="25-00-SW">
			 <stop index="0" parkingArea="02-24-NE" duration="2400" parking="true"/>
		</trip>
	<trip id="e_l60_70" depart="0" to="01-23-SE">
			 <stop index="0" parkingArea="27-03-SE" duration="1980" parking="true"/>
		</trip>
	<trip id="e_l60_71" depart="0" to="01-23-SE">
			 <stop index="0" parkingArea="24-02-NW" duration="2220" parking="true"/>
		</trip>
	<trip id="e_l60_72" depart="0" to="01-23-SE">
			 <stop index="0" parkingArea="24-01-NW" duration="720" parking="true"/>
		</trip>
	<trip id="e_l60_73" depart="0" to="01-27-NW">
			 <stop index="0" parkingArea="27-03-NW" duration="3540" parking="true"/>
		</trip>
	<trip id="e_l60_74" depart="0" to="27-00-SW">
			 <stop index="0" parkingArea="27-03-NW" duration="3000" parking="true"/>
		</trip>
	<trip id="t0" depart="7" from="03-27-SE" to="01-23-SE">
			<stop index="0" parkingArea="24-01-NW" duration="1800" parking="true"/>
		</trip>
	<trip id="t1" depart="74" from="01-23-NW" to="26-04-NE">
			<stop index="0" parkingArea="25-01-NW" duration="3600" parking="true"/>
		</trip>
	<trip id="t2" depart="78" from="03-27-SE" to="03-27-NW">
			<stop index="0" parkingArea="01-24-SW" duration="3600" parking="true"/>
		</trip>
	<trip id="t3" depart="87" from="27-04-SW" to="03-27-NW">
			<stop index="0" parkingArea="26-01-SE" duration="3600" parking="true"/>
		</trip>
	<trip id="t4" depart="89" from="27-04-SW" to="27-04-NE">
			<stop index="0" parkingArea="03-25-SW" duration="1200" parking="true"/>
		</trip>
	<trip id="t5" depart="112" from="02-27-SE" to="25-00-SW">
			<stop index="0" parkingArea="27-02-SE" duration="3600" parking="true"/>
		</trip>
	<trip id="t6" depart="133" from="04-23-NW" to="27-04-NE">
			<stop index="0" parkingArea="02-24-NE" duration="3600" parking="true"/>
		</trip>
	<trip id="t7" depart="161" from="25-00-NE" to="01-23-SE">
			<stop index="0" parkingArea="26-02-SE" duration="3600" parking="true"/>
		</trip>
	<trip id="t8" depart="290" from="01-23-NW" to="27-04-NE">
			<stop index="0" parkingArea="03-25-NE" duration="3600" parking="true"/>
		</trip>
	<trip id="t9" depart="314" from="03-23-NW" to="02-23-SE">
			<stop index="0" parkingArea="27-01-SE" duration="3600" parking="true"/>
		</trip>
	<trip id="t10" depart="367" from="25-00-NE" to="27-04-NE">
			<stop index="0" parkingArea="24-01-SE" duration="3600" parking="true"/>
		</trip>
	<trip id="t11" depart="385" from="03-27-SE" to="26-04-NE">
			<stop index="0" parkingArea="27-02-SE" duration="600" parking="true"/>
		</trip>
	<trip id="t12" depart="410" from="04-23-NW" to="04-27-NW">
			<stop index="0" parkingArea="24-03-NW" duration="1800" parking="true"/>
		</trip>
	<trip id="t13" depart="414" from="01-27-SE" to="04-27-NW">
			<stop index="0" parkingArea="02-24-NE" duration="3600" parking="true"/>
		</trip>
	<trip id="t14" depart="446" from="27-00-NE" to="27-04-NE">
			<stop index="0" parkingArea="24-03-NW" duration="3600" parking="true"/>
		</trip>
	<trip id="t15" depart="449" from="27-00-NE" to="27-04-NE">
			<stop index="0" parkingArea="04-24-SW" duration="3600" parking="true"/>
		</trip>
	<trip id="t16" depart="468" from="27-04-SW" to="03-23-SE">
			<stop index="0" parkingArea="04-26-NE" duration="3600" parking="true"/>
		</trip>
	<trip id="t17" depart="470" from="26-00-NE" to="01-23-SE">
			<stop index="0" parkingArea="02-26-NE" duration="3600" parking="true"/>
		</trip>
	<trip id="t18" depart="472" from="25-00-NE" to="02-23-SE">
			<stop index="0" parkingArea="01-24-NE" duration="3600" parking="true"/>
		</trip>
	<trip id="t19" depart="474" from="03-27-SE" to="24-04-NE">
			<stop index="0" parkingArea="26-03-SE" duration="3600" parking="true"/>
		</trip>
	<trip id="t20" depart="489" from="27-04-SW" to="26-04-NE">
			<stop index="0" parkingArea="27-01-SE" duration="3600" parking="true"/>
		</trip>
	<trip id="t21" depart="515" from="01-23-NW" to="27-04-NE">
			<stop index="0" parkingArea="25-01-NW" duration="3600" parking="true"/>
		</trip>
	<trip id="t22" depart="518" from="03-23-NW" to="27-04-NE">
			<stop index="0" parkingArea="26-01-NW" duration="3600" parking="true"/>
		</trip>
	<trip id="t23" depart="518" from="02-27-SE" to="03-23-SE">
			<stop index="0" parkingArea="02-26-SW" duration="3600" parking="true"/>
		</trip>
	<trip id="t24" depart="567" from="02-27-SE" to="03-27-NW">
			<stop index="0" parkingArea="01-25-SW" duration="3600" parking="true"/>
		</trip>
	<trip id="t25" depart="580" from="26-00-NE" to="24-04-NE">
			<stop index="0" parkingArea="03-24-NE" duration="3600" parking="true"/>
		</trip>
	<trip id="t26" depart="643" from="01-27-SE" to="25-00-SW">
			<stop index="0" parkingArea="24-02-SE" duration="3600" parking="true"/>
		</trip>
	<trip id="t27" depart="647" from="03-27-SE" to="01-27-NW">
			<stop index="0" parkingArea="04-25-SW" duration="3600" parking="true"/>
		</trip>
	<trip id="t28" depart="677" from="04-23-NW" to="01-23-SE">
			<stop index="0" parkingArea="04-25-SW" duration="3600" parking="true"/>
		</trip>
	<trip id="t29" depart="696" from="25-00-NE" to="24-04-NE">
			<stop index="0" parkingArea="01-25-NE" duration="3600" parking="true"/>
		</trip>
	<trip id="t30" depart="709" from="03-27-SE" to="04-27-NW">
			<stop index="0" parkingArea="24-02-SE" duration="1800" parking="true"/>
		</trip>
	<trip id="t31" depart="726" from="27-00-NE" to="04-27-NW">
			<stop index="0" parkingArea="01-24-SW" duration="3600" parking="true"/>
		</trip>
	<trip id="t32" depart="730" from="04-23-NW" to="26-04-NE">
			<stop index="0" parkingArea="27-03-SE" duration="3600" parking="true"/>
		</trip>
	<trip id="t33" depart="766" from="01-23-NW" to="01-23-SE">
			<stop index="0" parkingArea="04-25-SW" duration="3600" parking="true"/>
		</trip>
	<trip id="t34" depart="778" from="04-23-NW" to="25-00-SW">
			<stop index="0" parkingArea="24-02-NW" duration="3600" parking="true"/>
		</trip>
	<trip id="t35" depart="819" from="03-23-NW" to="01-27-NW">
			<stop index="0" parkingArea="24-01-SE" duration="1800" parking="true"/>
		</trip>
	<trip id="t36" depart="842" from="04-23-NW" to="01-27-NW">
			<stop index="0" parkingArea="02-25-SW" duration="1800" parking="true"/>
		</trip>
	<trip id="t37" depart="851" from="02-27-SE" to="27-00-SW">
			<stop index="0" parkingArea="25-02-SE" duration="3600" parking="true"/>
		</trip>
	<trip id="t38" depart="873" from="02-27-SE" to="02-23-SE">
			<stop index="0" parkingArea="02-25-SW" duration="3600" parking="true"/>
		</trip>
	<trip id="t39" depart="882" from="25-00-NE" to="27-04-NE">
			<stop index="0" parkingArea="25-02-NW" duration="3600" parking="true"/>
		</trip>
	<trip id="t40" depart="899" from="01-27-SE" to="04-27-NW">