<?xml version="1.0" encoding="UTF-8"?>
<routes xmlns:xsi="http://www.w3.org/2001/XMLSchema-instance" xsi:noNamespaceSchemaLocation="http://sumo.dlr.de/xsd/routes_file.xsd">

	<vType id="passenger" vClass="passenger"></vType>
	<trip id="0" depart="0" from="03-27-SE" to="01-23-SE">
		 <stop index="0" parkingArea="02-25-NE" duration="60" parking="true"/>
	</trip>
	<trip id="1" depart="10" from="04-23-NW" to="25-00-SW">
		 <stop index="0" parkingArea="01-25-SW" duration="60" parking="true"/>
	</trip>
	<trip id="2" depart="20" from="27-04-SW" to="25-00-SW">
		 <stop index="0" parkingArea="04-26-NE" duration="60" parking="true"/>
	</trip>
	<trip id="3" depart="30" from="01-27-SE" to="26-04-NE">
		 <stop index="0" parkingArea="02-25-NE" duration="60" parking="true"/>
	</trip>
	<trip id="4" depart="40" from="26-00-NE" to="02-23-SE">
		 <stop index="0" parkingArea="27-01-NW" duration="60" parking="true"/>
	</trip>
	<trip id="5" depart="50" from="27-00-NE" to="01-23-SE">
		 <stop index="0" parkingArea="02-24-NE" duration="60" parking="true"/>
	</trip>
	<trip id="6" depart="60" from="01-23-NW" to="26-04-NE">
		 <stop index="0" parkingArea="25-03-NW" duration="60" parking="true"/>
	</trip>
	<trip id="7" depart="70" from="03-23-NW" to="01-27-NW">
		 <stop index="0" parkingArea="03-26-SW" duration="60" parking="true"/>
	</trip>
	<trip id="8" depart="80" from="03-27-SE" to="01-27-NW">
		 <stop index="0" parkingArea="04-26-NE" duration="60" parking="true"/>
	</trip>
	<trip id="9" depart="90" from="27-04-SW" to="03-27-NW">
		 <stop index="0" parkingArea="24-01-SE" duration="60" parking="true"/>
	</trip>
	<trip id="10" depart="100" from="02-27-SE" to="03-27-NW">
		 <stop index="0" parkingArea="02-25-NE" duration="60" parking="true"/>
	</trip>
	<trip id="11" depart="110" from="25-00-NE" to="03-23-SE">
		 <stop index="0" parkingArea="04-24-SW" duration="60" parking="true"/>
	</trip>
	<trip id="12" depart="120" from="03-27-SE" to="03-27-NW">
		 <stop index="0" parkingArea="25-01-SE" duration="60" parking="true"/>
	</trip>
	<trip id="13" depart="130" from="01-23-NW" to="27-04-NE">
		 <stop index="0" parkingArea="26-02-NW" duration="60" parking="true"/>
	</trip>
	<trip id="14" depart="140" from="27-00-NE" to="25-00-SW">
		 <stop index="0" parkingArea="04-24-NE" duration="60" parking="true"/>
	</trip>
	<trip id="15" depart="150" from="27-00-NE" to="01-23-SE">
		 <stop index="0" parkingArea="03-24-NE" duration="60" parking="true"/>
	</trip>
	<trip id="16" depart="160" from="04-23-NW" to="27-04-NE">
		 <stop index="0" parkingArea="04-24-NE" duration="60" parking="true"/>
	</trip>
	<trip id="17" depart="170" from="03-23-NW" to="03-27-NW">
		 <stop index="0" parkingArea="25-03-NW" duration="60" parking="true"/>
	</trip>
	<trip id="18" depart="180" from="03-27-SE" to="04-27-NW">
		 <stop index="0" parkingArea="26-01-SE" duration="60" parking="true"/>
	</trip>
	<trip id="19" depart="190" from="27-04-SW" to="25-00-SW">
		 <stop index="0" parkingArea="26-03-SE" duration="60" parking="true"/>
	</trip>
	<trip id="20" depart="200" from="03-27-SE" to="25-00-SW">
		 <stop index="0" parkingArea="26-03-SE" duration="60" parking="true"/>
	</trip>
	<trip id="21" depart="210" from="01-23-NW" to="02-23-SE">
		 <stop index="0" parkingArea="04-26-SW" duration="60" parking="true"/>
	</trip>
	<trip id="22" depart="220" from="02-27-SE" to="01-27-NW">
		 <stop index="0" parkingArea="26-03-SE" duration="60" parking="true"/>
	</trip>
	<trip id="23" depart="230" from="02-27-SE" to="04-27-NW">
		 <stop index="0" parkingArea="27-03-NW" duration="60" parking="true"/>
	</trip>
	<trip id="24" depart="240" from="25-00-NE" to="04-27-NW">
		 <stop index="0" parkingArea="02-24-NE" duration="60" parking="true"/>
	</trip>
	<trip id="25" depart="250" from="04-23-NW" to="01-27-NW">
		 <stop index="0" parkingArea="26-03-NW" duration="60" parking="true"/>
	</trip>
	<trip id="26" depart="260" from="27-00-NE" to="04-27-NW">
		 <stop index="0" parkingArea="24-03-NW" duration="60" parking="true"/>
	</trip>
	<trip id="27" depart="270" from="01-23-NW" to="25-00-SW">
		 <stop index="0" parkingArea="04-24-SW" duration="60" parking="true"/>
	</trip>
	<trip id="28" depart="280" from="25-00-NE" to="04-27-NW">
		 <stop index="0" parkingArea="24-02-SE" duration="60" parking="true"/>
	</trip>
	<trip id="29" depart="290" from="02-27-SE" to="01-27-NW">
		 <stop index="0" parkingArea="04-25-SW" duration="60" parking="true"/>
	</trip>
	<trip id="30" depart="300" from="02-27-SE" to="26-04-NE">
		 <stop index="0" parkingArea="27-02-SE" duration="60" parking="true"/>
	</trip>
	<trip id="31" depart="310" from="25-00-NE" to="24-04-NE">
		 <stop index="0" parkingArea="24-01-NW" duration="60" parking="true"/>
	</trip>
	<trip id="32" depart="320" from="27-04-SW" to="26-04-NE">
		 <stop index="0" parkingArea="03-24-SW" duration="60" parking="true"/>
	</trip>
	<trip id="33" depart="330" from="26-00-NE" to="03-27-NW">
		 <stop index="0" parkingArea="27-02-SE" duration="60" parking="true"/>
	</trip>
	<trip id="34" depart="340" from="01-27-SE" to="04-27-NW">
		 <stop index="0" parkingArea="27-01-NW" duration="60" parking="true"/>
	</trip>
	<trip id="35" depart="350" from="04-23-NW" to="27-04-NE">
		 <stop index="0" parkingArea="24-01-SE" duration="60" parking="true"/>
	</trip>
	<trip id="36" depart="360" from="01-23-NW" to="02-23-SE">
		 <stop index="0" parkingArea="26-03-SE" duration="60" parking="true"/>
	</trip>
	<trip id="37" depart="370" from="26-00-NE" to="27-00-SW">
		 <stop index="0" parkingArea="27-03-SE" duration="60" parking="true"/>
	</trip>
	<trip id="38" depart="380" from="03-27-SE" to="04-27-NW">
		 <stop index="0" parkingArea="25-02-NW" duration="60" parking="true"/>
	</trip>
	<trip id="39" depart="390" from="27-00-NE" to="03-27-NW">
		 <stop index="0" parkingArea="02-25-NE" duration="60" parking="true"/>
	</trip>
	<trip id="40" depart="400" from="26-00-NE" to="03-23-SE">
		 <stop index="0" parkingArea="04-24-NE" duration="60" parking="true"/>
	</trip>
	<trip id="41" depart="410" from="01-23-NW" to="01-23-SE">
		 <stop index="0" parkingArea="02-26-SW" duration="60" parking="true"/>
	</trip>
	<trip id="42" depart="420" from="25-00-NE" to="24-04-NE">
		 <stop index="0" parkingArea="24-02-SE" duration="60" parking="true"/>
	</trip>
	<trip id="43" depart="430" from="27-04-SW" to="27-00-SW">
		 <stop index="0" parkingArea="27-02-NW" duration="60" parking="true"/>
	</trip>
	<trip id="44" depart="440" from="04-23-NW" to="04-27-NW">
		 <stop index="0" parkingArea="24-01-NW" duration="60" parking="true"/>
	</trip>
	<trip id="45" depart="450" from="25-00-NE" to="03-27-NW">
		 <stop index="0" parkingArea="03-25-SW" duration="60" parking="true"/>
	</trip>
	<trip id="46" depart="460" from="27-00-NE" to="24-04-NE">
		 <stop index="0" parkingArea="04-25-SW" duration="60" parking="true"/>
	</trip>
	<trip id="47" depart="470" from="04-23-NW" to="03-27-NW">
		 <stop index="0" parkingArea="02-26-SW" duration="60" parking="true"/>
	</trip>
	<trip id="48" depart="480" from="25-00-NE" to="01-23-SE">
		 <stop index="0" parkingArea="02-26-SW" duration="60" parking="true"/>
	</trip>
	<trip id="49" depart="490" from="27-00-NE" to="01-27-NW">
		 <stop index="0" parkingArea="04-25-NE" duration="60" parking="true"/>
	</trip>
	<trip id="50" depart="500" from="02-27-SE" to="24-04-NE">
		 <stop index="0" parkingArea="25-02-NW" duration="60" parking="true"/>
	</trip>
	<trip id="51" depart="510" from="01-27-SE" to="01-23-SE">
		 <stop index="0" parkingArea="04-26-NE" duration="60" parking="true"/>
	</trip>
	<trip id="52" depart="520" from="01-23-NW" to="03-23-SE">
		 <stop index="0" parkingArea="03-26-SW" duration="60" parking="true"/>
	</trip>
	<trip id="53" depart="530" from="01-27-SE" to="24-04-NE">
		 <stop index="0" parkingArea="03-25-NE" duration="60" parking="true"/>
	</trip>
	<trip id="54" depart="540" from="03-23-NW" to="27-00-SW">
		 <stop index="0" parkingArea="04-26-NE" duration="60" parking="true"/>
	</trip>
	<trip id="55" depart="550" from="04-23-NW" to="26-04-NE">
		 <stop index="0" parkingArea="24-02-SE" duration="60" parking="true"/>
	</trip>
	<trip id="56" depart="560" from="04-23-NW" to="27-00-SW">
		 <stop index="0" parkingArea="04-24-SW" duration="60" parking="true"/>
	</trip>
	<trip id="57" depart="570" from="27-00-NE" to="03-23-SE">
		 <stop index="0" parkingArea="03-26-SW" duration="60" parking="true"/>
	</trip>
	<trip id="58" depart="580" from="26-00-NE" to="27-00-SW">
		 <stop index="0" parkingArea="24-02-NW" duration="60" parking="true"/>
	</trip>
	<trip id="59" depart="590" from="04-23-NW" to="27-04-NE">
		 <stop index="0" parkingArea="27-03-SE" duration="60" parking="true"/>
	</trip>
	<trip id="60" depart="600" from="25-00-NE" to="01-27-NW">
		 <stop index="0" parkingArea="27-03-SE" duration="60" parking="true"/>
	</trip>
	<trip id="61" depart="610" from="02-27-SE" to="01-27-NW">
		 <stop index="0" parkingArea="25-02-NW" duration="60" parking="true"/>
	</trip>
	<trip id="62" depart="620" from="01-23-NW" to="24-04-NE">
		 <stop index="0" parkingArea="26-01-NW" duration="60" parking="true"/>
	</trip>
	<trip id="63" depart="630" from="03-23-NW" to="24-04-NE">
		 <stop index="0" parkingArea="27-03-SE" duration="60" parking="true"/>
	</trip>
	<trip id="64" depart="640" from="02-27-SE" to="27-04-NE">
		 <stop index="0" parkingArea="24-02-NW" duration="60" parking="true"/>
	</trip>
	<trip id="65" depart="650" from="03-27-SE" to="01-23-SE">
		 <stop index="0" parkingArea="25-01-SE" duration="60" parking="true"/>
	</trip>
	<trip id="66" depart="660" from="26-00-NE" to="01-27-NW">
		 <stop index="0" parkingArea="04-25-NE" duration="60" parking="true"/>
	</trip>
	<trip id="67" depart="670" from="01-27-SE" to="04-27-NW">
		 <stop index="0" parkingArea="03-25-NE" duration="60" parking="true"/>
	</trip>
	<trip id="68" depart="680" from="02-27-SE" to="27-04-NE">
		 <stop index="0" parkingArea="27-02-SE" duration="60" parking="true"/>
	</trip>
	<trip id="69" depart="690" from="02-27-SE" to="24-04-NE">
		 <stop index="0" parkingArea="04-24-NE" duration="60" parking="true"/>
	</trip>
	<trip id="70" depart="700" from="01-23-NW" to="26-04-NE">
		 <stop index="0" parkingArea="26-03-NW" duration="60" parking="true"/>
	</trip>
	<trip id="71" depart="710" from="01-27-SE" to="27-00-SW">
		 <stop index="0" parkingArea="02-26-SW" duration="60" parking="true"/>
	</trip>
	<trip id="72" depart="720" from="04-23-NW" to="26-04-NE">
		 <stop index="0" parkingArea="25-01-NW" duration="60" parking="true"/>
	</trip>
	<trip id="73" depart="730" from="25-00-NE" to="02-23-SE">
		 <stop index="0" parkingArea="27-02-NW" duration="60" parking="true"/>
	</trip>
	<trip id="74" depart="740" from="03-23-NW" to="03-27-NW">
		 <stop index="0" parkingArea="27-02-SE" duration="60" parking="true"/>
	</trip>
	<trip id="75" depart="750" from="01-27-SE" to="01-27-NW">
		 <stop index="0" parkingArea="04-25-SW" duration="60" parking="true"/>
	</trip>
	<trip id="76" depart="760" from="04-23-NW" to="01-23-SE">
		 <stop index="0" parkingArea="02-24-SW" duration="60" parking="true"/>
	</trip>
	<trip id="77" depart="770" from="01-23-NW" to="27-04-NE">
		 <stop index="0" parkingArea="04-24-SW" duration="60" parking="true"/>
	</trip>
	<trip id="78" depart="780" from="27-04-SW" to="04-27-NW">
		 <stop index="0" parkingArea="02-24-NE" duration="60" parking="true"/>
	</trip>
	<trip id="79" depart="790" from="02-27-SE" to="03-27-NW">
		 <stop index="0" parkingArea="03-24-NE" duration="60" parking="true"/>
	</trip>
	<trip id="80" depart="800" from="27-04-SW" to="01-23-SE">
		 <stop index="0" parkingArea="27-01-SE" duration="60" parking="true"/>
	</trip>
	<trip id="81" depart="810" from="02-27-SE" to="01-23-SE">
		 <stop index="0" parkingArea="25-01-SE" duration="60" parking="true"/>
	</trip>
	<trip id="82" depart="820" from="27-00-NE" to="01-23-SE">
		 <stop index="0" parkingArea="03-24-NE" duration="60" parking="true"/>
	</trip>
	<trip id="83" depart="830" from="03-23-NW" to="26-04-NE">
		 <stop index="0" parkingArea="04-26-SW" duration="60" parking="true"/>
	</trip>
	<trip id="84" depart="840" from="26-00-NE" to="02-23-SE">
		 <stop index="0" parkingArea="04-24-SW" duration="60" parking="true"/>
	</trip>
	<trip id="85" depart="850" from="03-27-SE" to="04-27-NW">
		 <stop index="0" parkingArea="04-25-NE" duration="60" parking="true"/>
	</trip>
	<trip id="86" depart="860" from="03-23-NW" to="25-00-SW">
		 <stop index="0" parkingArea="25-03-NW" duration="60" parking="true"/>
	</trip>
	<trip id="87" depart="870" from="03-27-SE" to="25-00-SW">
		 <stop index="0" parkingArea="25-01-NW" duration="60" parking="true"/>
	</trip>
	<trip id="88" depart="880" from="02-27-SE" to="25-00-SW">
		 <stop index="0" parkingArea="04-24-NE" duration="60" parking="true"/>
	</trip>
	<trip id="89" depart="890" from="25-00-NE" to="04-27-NW">
		 <stop index="0" parkingArea="03-26-SW" duration="60" parking="true"/>
	</trip>
	<trip id="90" depart="900" from="03-23-NW" to="27-04-NE">
		 <stop index="0" parkingArea="25-01-NW" duration="60" parking="true"/>
	</trip>
	<trip id="91" depart="910" from="27-04-SW" to="01-27-NW">
		 <stop index="0" parkingArea="27-02-SE" duration="60" parking="true"/>
	</trip>
	<trip id="92" depart="920" from="03-23-NW" to="27-04-NE">
		 <stop index="0" parkingArea="27-02-NW" duration="60" parking="true"/>
	</trip>
	<trip id="93" depart="930" from="03-23-NW" to="24-04-NE">
		 <stop index="0" parkingArea="24-01-NW" duration="60" parking="true"/>
	</trip>
	<trip id="94" depart="940" from="25-00-NE" to="01-23-SE">
		 <stop index="0" parkingArea="03-25-SW" duration="60" parking="true"/>
	</trip>
	<trip id="95" depart="950" from="01-23-NW" to="01-27-NW">
		 <stop index="0" parkingArea="26-01-NW" duration="60" parking="true"/>
	</trip>
	<trip id="96" depart="960" from="02-27-SE" to="04-27-NW">
		 <stop index="0" parkingArea="04-24-NE" duration="60" parking="true"/>
	</trip>
	<trip id="97" depart="970" from="27-00-NE" to="02-23-SE">
		 <stop index="0" parkingArea="02-24-NE" duration="60" parking="true"/>
	</trip>
	<trip id="98" depart="980" from="04-23-NW" to="02-23-SE">
		 <stop index="0" parkingArea="04-26-NE" duration="60" parking="true"/>
	</trip>
	<trip id="99" depart="990" from="03-23-NW" to="03-23-SE">
		 <stop index="0" parkingArea="02-26-SW" duration="60" parking="true"/>
	</trip>
	<trip id="100" depart="1000" from="27-00-NE" to="02-23-SE">
		 <stop index="0" parkingArea="02-24-SW" duration="60" parking="true"/>
	</trip>
	<trip id="101" depart="1010" from="01-27-SE" to="04-27-NW">
		 <stop index="0" parkingArea="01-24-NE" duration="60" parking="true"/>
	</trip>
	<trip id="102" depart="1020" from="27-00-NE" to="26-04-NE">
		 <stop index="0" parkingArea="02-24-SW" duration="60" parking="true"/>
	</trip>
	<trip id="103" depart="1030" from="03-23-NW" to="03-27-NW">
		 <stop index="0" parkingArea="27-01-NW" duration="60" parking="true"/>
	</trip>
	<trip id="104" depart="1040" from="03-23-NW" to="27-00-SW">
		 <stop index="0" parkingArea="27-02-SE" duration="60" parking="true"/>
	</trip>
	<trip id="105" depart="1050" from="27-00-NE" to="03-23-SE">
		 <stop index="0" parkingArea="26-02-NW" duration="60" parking="true"/>
	</trip>
	<trip id="106" depart="1060" from="03-23-NW" to="01-23-SE">
		 <stop index="0" parkingArea="26-03-NW" duration="60" parking="true"/>
	</trip>
	<trip id="107" depart="1070" from="02-27-SE" to="01-27-NW">
		 <stop index="0" parkingArea="24-03-NW" duration="60" parking="true"/>
	</trip>
	<trip id="108" depart="1080" from="27-04-SW" to="27-00-SW">
		 <stop index="0" parkingArea="02-24-NE" duration="60" parking="true"/>
	</trip>
	<trip id="109" depart="1090" from="04-23-NW" to="03-27-NW">
		 <stop index="0" parkingArea="02-26-SW" duration="60" parking="true"/>
	</trip>
	<trip id="110" depart="1100" from="27-04-SW" to="01-23-SE">
		 <stop index="0" parkingArea="02-25-NE" duration="60" parking="true"/>
	</trip>
	<trip id="111" depart="1110" from="04-23-NW" to="24-04-NE">
		 <stop index="0" parkingArea="02-24-SW" duration="60" parking="true"/>
	</trip>
	<trip id="112" depart="1120" from="26-00-NE" to="02-23-SE">
		 <stop index="0" parkingArea="04-25-SW" duration="60" parking="true"/>
	</trip>
	<trip id="113" depart="1130" from="02-27-SE" to="27-04-NE">
		 <stop index="0" parkingArea="27-03-NW" duration="60" parking="true"/>
	</trip>
	<trip id="114" depart="1140" from="26-00-NE" to="26-04-NE">
		 <stop index="0" parkingArea="02-25-NE" duration="60" parking="true"/>
	</trip>
	<trip id="115" depart="1150" from="01-23-NW" to="25-00-SW">
		 <stop index="0" parkingArea="26-02-SE" duration="60" parking="true"/>
	</trip>
	<trip id="116" depart="1160" from="27-00-NE" to="03-27-NW">
		 <stop index="0" parkingArea="04-24-NE" duration="60" parking="true"/>
	</trip>
	<trip id="117" depart="1170" from="26-00-NE" to="03-23-SE">
		 <stop index="0" parkingArea="24-02-NW" duration="60" parking="true"/>
	</trip>
	<trip id="118" depart="1180" from="04-23-NW" to="04-27-NW">
		 <stop index="0" parkingArea="26-01-SE" duration="60" parking="true"/>
	</trip>
	<trip id="119" depart="1190" from="01-27-SE" to="02-23-SE">
		 <stop index="0" parkingArea="27-02-NW" duration="60" parking="true"/>
	</trip>
	<trip id="120" depart="1200" from="04-23-NW" to="27-04-NE">
		 <stop index="0" parkingArea="26-02-SE" duration="60" parking="true"/>
	</trip>
	<trip id="121" depart="1210" from="04-23-NW" to="25-00-SW">
		 <stop index="0" parkingArea="03-24-SW" duration="60" parking="true"/>
	</trip>
	<trip id="122" depart="1220" from="04-23-NW" to="04-27-NW">
		 <stop index="0" parkingArea="25-02-NW" duration="60" parking="true"/>
	</trip>
	<trip id="123" depart="1230" from="25-00-NE" to="26-04-NE">
		 <stop index="0" parkingArea="03-26-SW" duration="60" parking="true"/>
	</trip>
	<trip id="124" depart="1240" from="02-27-SE" to="03-27-NW">
		 <stop index="0" parkingArea="02-25-NE" duration="60" parking="true"/>
	</trip>
	<trip id="125" depart="1250" from="02-27-SE" to="03-23-SE">
		 <stop index="0" parkingArea="03-24-SW" duration="60" parking="true"/>
	</trip>
	<trip id="126" depart="1260" from="03-27-SE" to="04-27-NW">
		 <stop index="0" parkingArea="01-25-SW" duration="60" parking="true"/>
	</trip>
	<trip id="127" depart="1270" from="26-00-NE" to="04-27-NW">
		 <stop index="0" parkingArea="27-03-SE" duration="60" parking="true"/>
	</trip>
	<trip id="128" depart="1280" from="04-23-NW" to="26-04-NE">
		 <stop index="0" parkingArea="27-01-NW" duration="60" parking="true"/>
	</trip>
	<trip id="129" depart="1290" from="26-00-NE" to="04-27-NW">
		 <stop index="0" parkingArea="02-26-SW" duration="60" parking="true"/>
	</trip>
	<trip id="130" depart="1300" from="26-00-NE" to="02-23-SE">
		 <stop index="0" parkingArea="26-01-SE" duration="60" parking="true"/>
	</trip>
	<trip id="131" depart="1310" from="25-00-NE" to="03-23-SE">
		 <stop index="0" parkingArea="25-02-SE" duration="60" parking="true"/>
	</trip>
	<trip id="132" depart="1320" from="27-00-NE" to="24-04-NE">
		 <stop index="0" parkingArea="27-02-NW" duration="60" parking="true"/>
	</trip>
	<trip id="133" depart="1330" from="27-00-NE" to="03-23-SE">
		 <stop index="0" parkingArea="25-01-NW" duration="60" parking="true"/>
	</trip>
	<trip id="134" depart="1340" from="01-23-NW" to="26-04-NE">
		 <stop index="0" parkingArea="02-24-NE" duration="60" parking="true"/>
	</trip>
	<trip id="135" depart="1350" from="27-00-NE" to="03-27-NW">
		 <stop index="0" parkingArea="26-01-NW" duration="60" parking="true"/>
	</trip>
	<trip id="136" depart="1360" from="25-00-NE" to="02-23-SE">
		 <stop index="0" parkingArea="04-26-SW" duration="60" parking="true"/>
	</trip>
	<trip id="137" depart="1370" from="03-23-NW" to="27-04-NE">
		 <stop index="0" parkingArea="02-25-SW" duration="60" parking="true"/>
	</trip>
	<trip id="138" depart="1380" from="27-04-SW" to="24-04-NE">
		 <stop index="0" parkingArea="24-01-NW" duration="60" parking="true"/>
	</trip>
	<trip id="139" depart="1390" from="02-27-SE" to="26-04-NE">
		 <stop index="0" parkingArea="27-01-SE" duration="60" parking="true"/>
	</trip>
	<trip id="140" depart="1400" from="03-23-NW" to="01-23-SE">
		 <stop index="0" parkingArea="03-24-NE" duration="60" parking="true"/>
	</trip>
	<trip id="141" depart="1410" from="27-04-SW" to="01-27-NW">
		 <stop index="0" parkingArea="24-01-SE" duration="60" parking="true"/>
	</trip>
	<trip id="142" depart="1420" from="26-00-NE" to="25-00-SW">
		 <stop index="0" parkingArea="04-26-SW" duration="60" parking="true"/>
	</trip>
	<trip id="143" depart="1430" from="27-04-SW" to="27-00-SW">
		 <stop index="0" parkingArea="24-01-SE" duration="60" parking="true"/>
	</trip>
	<trip id="144" depart="1440" from="03-23-NW" to="24-04-NE">
		 <stop index="0" parkingArea="02-24-SW" duration="60" parking="true"/>
	</trip>
	<trip id="145" depart="1450" from="27-00-NE" to="02-23-SE">
		 <stop index="0" parkingArea="02-25-SW" duration="60" parking="true"/>
	</trip>
	<trip id="146" depart="1460" from="01-27-SE" to="25-00-SW">
		 <stop index="0" parkingArea="04-25-NE" duration="60" parking="true"/>
	</trip>
	<trip id="147" depart="1470" from="04-23-NW" to="01-27-NW">
		 <stop index="0" parkingArea="25-03-NW" duration="60" parking="true"/>
	</trip>
	<trip id="148" depart="1480" from="04-23-NW" to="02-23-SE">
		 <stop index="0" parkingArea="03-24-SW" duration="60" parking="true"/>
	</trip>
	<trip id="149" depart="1490" from="02-27-SE" to="03-27-NW">
		 <stop index="0" parkingArea="27-02-SE" duration="60" parking="true"/>
	</trip>
	<trip id="150" depart="1500" from="01-23-NW" to="27-00-SW">
		 <stop index="0" parkingArea="01-25-SW" duration="60" parking="true"/>
	</trip>
	<trip id="151" depart="1510" from="25-00-NE" to="25-00-SW">
		 <stop index="0" parkingArea="01-25-NE" duration="60" parking="true"/>
	</trip>
	<trip id="152" depart="1520" from="02-27-SE" to="01-23-SE">
		 <stop index="0" parkingArea="25-03-NW" duration="60" parking="true"/>
	</trip>
	<trip id="153" depart="1530" from="27-00-NE" to="03-27-NW">
		 <stop index="0" parkingArea="02-26-NE" duration="60" parking="true"/>
	</trip>
	<trip id="154" depart="1540" from="02-27-SE" to="24-04-NE">
		 <stop index="0" parkingArea="01-25-SW" duration="60" parking="true"/>
	</trip>
	<trip id="155" depart="1550" from="04-23-NW" to="03-23-SE">
		 <stop index="0" parkingArea="02-24-SW" duration="60" parking="true"/>
	</trip>
	<trip id="156" depart="1560" from="01-27-SE" to="02-23-SE">
		 <stop index="0" parkingArea="27-03-SE" duration="60" parking="true"/>
	</trip>
	<trip id="157" depart="1570" from="04-23-NW" to="04-27-NW">
		 <stop index="0" parkingArea="01-24-NE" duration="60" parking="true"/>
	</trip>
	<trip id="158" depart="1580" from="01-23-NW" to="01-23-SE">
		 <stop index="0" parkingArea="03-26-SW" duration="60" parking="true"/>
	</trip>
	<trip id="159" depart="1590" from="04-23-NW" to="27-04-NE">
		 <stop index="0" parkingArea="25-03-NW" duration="60" parking="true"/>
	</trip>
	<trip id="160" depart="1600" from="26-00-NE" to="03-27-NW">
		 <stop index="0" parkingArea="24-02-SE" duration="60" parking="true"/>
	</trip>
	<trip id="161" depart="1610" from="03-23-NW" to="01-27-NW">
		 <stop index="0" parkingArea="02-25-NE" duration="60" parking="true"/>
	</trip>
	<trip id="162" depart="1620" from="26-00-NE" to="01-27-NW">
		 <stop index="0" parkingArea="03-24-NE" duration="60" parking="true"/>
	</trip>
	<trip id="163" depart="1630" from="01-27-SE" to="03-23-SE">
		 <stop index="0" parkingArea="26-02-SE" duration="60" parking="true"/>
	</trip>
	<trip id="164" depart="1640" from="04-23-NW" to="27-04-NE">
		 <stop index="0" parkingArea="24-03-NW" duration="60" parking="true"/>
	</trip>
	<trip id="165" depart="1650" from="27-00-NE" to="04-27-NW">
		 <stop index="0" parkingArea="02-26-SW" duration="60" parking="true"/>
	</trip>
	<trip id="166" depart="1660" from="02-27-SE" to="25-00-SW">
		 <stop index="0" parkingArea="25-03-NW" duration="60" parking="true"/>
	</trip>
	<trip id="167" depart="1670" from="27-00-NE" to="25-00-SW">
		 <stop index="0" parkingArea="02-26-SW" duration="60" parking="true"/>
	</trip>
	<trip id="168" depart="1680" from="01-23-NW" to="24-04-NE">
		 <stop index="0" parkingArea="01-24-SW" duration="60" parking="true"/>
	</trip>
	<trip id="169" depart="1690" from="01-27-SE" to="01-23-SE">
		 <stop index="0" parkingArea="01-24-NE" duration="60" parking="true"/>
	</trip>
	<trip id="170" depart="1700" from="04-23-NW" to="27-00-SW">
		 <stop index="0" parkingArea="27-01-NW" duration="60" parking="true"/>
	</trip>
	<trip id="171" depart="1710" from="27-00-NE" to="02-23-SE">
		 <stop index="0" parkingArea="26-01-NW" duration="60" parking="true"/>
	</trip>
	<trip id="172" depart="1720" from="26-00-NE" to="01-23-SE">
		 <stop index="0" parkingArea="03-26-SW" duration="60" parking="true"/>
	</trip>
	<trip id="173" depart="1730" from="03-23-NW" to="03-27-NW">
		 <stop index="0" parkingArea="26-01-SE" duration="60" parking="true"/>
	</trip>
	<trip id="174" depart="1740" from="03-27-SE" to="03-23-SE">
		 <stop index="0" parkingArea="26-03-SE" duration="60" parking="true"/>
	</trip>
	<trip id="175" depart="1750" from="03-23-NW" to="02-23-SE">
		 <stop index="0" parkingArea="03-25-NE" duration="60" parking="true"/>
	</trip>
	<trip id="176" depart="1760" from="04-23-NW" to="01-27-NW">
		 <stop index="0" parkingArea="27-01-SE" duration="60" parking="true"/>
	</trip>
	<trip id="177" depart="1770" from="04-23-NW" to="04-27-NW">
		 <stop index="0" parkingArea="02-26-SW" duration="60" parking="true"/>
	</trip>
	<trip id="178" depart="1780" from="26-00-NE" to="24-04-NE">
		 <stop index="0" parkingArea="27-01-SE" duration="60" parking="true"/>
	</trip>
	<trip id="179" depart="1790" from="03-23-NW" to="01-27-NW">
		 <stop index="0" parkingArea="26-01-NW" duration="60" parking="true"/>
	</trip>
	<trip id="180" depart="1800" from="27-00-NE" to="03-23-SE">
		 <stop index="0" parkingArea="04-24-NE" duration="60" parking="true"/>
	</trip>
	<trip id="181" depart="1810" from="01-23-NW" to="03-23-SE">
		 <stop index="0" parkingArea="26-01-SE" duration="60" parking="true"/>
	</trip>
	<trip id="182" depart="1820" from="27-00-NE" to="24-04-NE">
		 <stop index="0" parkingArea="04-24-SW" duration="60" parking="true"/>
	</trip>
	<trip id="183" depart="1830" from="04-23-NW" to="03-23-SE">
		 <stop index="0" parkingArea="02-24-NE" duration="60" parking="true"/>
	</trip>
	<trip id="184" depart="1840" from="04-23-NW" to="24-04-NE">
		 <stop index="0" parkingArea="04-25-SW" duration="60" parking="true"/>
	</trip>
	<trip id="185" depart="1850" from="03-27-SE" to="03-27-NW">
		 <stop index="0" parkingArea="04-25-NE" duration="60" parking="true"/>
	</trip>
	<trip id="186" depart="1860" from="03-27-SE" to="03-23-SE">
		 <stop index="0" parkingArea="02-24-SW" duration="60" parking="true"/>
	</trip>
	<trip id="187" depart="1870" from="01-23-NW" to="03-27-NW">
		 <stop index="0" parkingArea="26-03-NW" duration="60" parking="true"/>
	</trip>
	<trip id="188" depart="1880" from="01-27-SE" to="02-23-SE">
		 <stop index="0" parkingArea="03-26-SW" duration="60" parking="true"/>
	</trip>
	<trip id="189" depart="1890" from="01-27-SE" to="04-27-NW">
		 <stop index="0" parkingArea="25-01-SE" duration="60" parking="true"/>
	</trip>
	<trip id="190" depart="1900" from="26-00-NE" to="01-27-NW">
		 <stop index="0" parkingArea="25-02-NW" duration="60" parking="true"/>
	</trip>
	<trip id="191" depart="1910" from="27-04-SW" to="27-04-NE">
		 <stop index="0" parkingArea="25-03-NW" duration="60" parking="true"/>
	</trip>
	<trip id="192" depart="1920" from="04-23-NW" to="25-00-SW">
		 <stop index="0" parkingArea="02-25-SW" duration="60" parking="true"/>
	</trip>
	<trip id="193" depart="1930" from="01-27-SE" to="27-04-NE">
		 <stop index="0" parkingArea="27-02-NW" duration="60" parking="true"/>
	</trip>
	<trip id="194" depart="1940" from="27-04-SW" to="27-00-SW">
		 <stop index="0" parkingArea="26-01-SE" duration="60" parking="true"/>
	</trip>
	<trip id="195" depart="1950" from="27-04-SW" to="01-27-NW">
		 <stop index="0" parkingArea="24-01-NW" duration="60" parking="true"/>
	</trip>
	<trip id="196" depart="1960" from="01-23-NW" to="27-04-NE">
		 <stop index="0" parkingArea="04-25-NE" duration="60" parking="true"/>
	</trip>
	<trip id="197" depart="1970" from="03-27-SE" to="03-23-SE">
		 <stop index="0" parkingArea="25-02-SE" duration="60" parking="true"/>
	</trip>
	<trip id="198" depart="1980" from="27-04-SW" to="02-23-SE">
		 <stop index="0" parkingArea="04-26-SW" duration="60" parking="true"/>
	</trip>
	<trip id="199" depart="1990" from="01-27-SE" to="03-27-NW">
		 <stop index="0" parkingArea="27-02-NW" duration="60" parking="true"/>
	</trip>

</routes>
