<?xml version="1.0" encoding="UTF-8"?>
<routes xmlns:xsi="http://www.w3.org/2001/XMLSchema-instance" xsi:noNamespaceSchemaLocation="http://sumo.dlr.de/xsd/routes_file.xsd">

	<vType id="passenger" vClass="passenger"></vType>
	<route id="0" type="passenger" edges="03-27-NW 24-04-NE">
		<stop index="0" parkingArea="26-01-SE" duration="20" parking="true"/>
	</route>
	<route id="1" type="passenger" edges="03-23-NW 01-27-SE">
		<stop index="0" parkingArea="02-25-NE" duration="20" parking="true"/>
	</route>
	<route id="2" type="passenger" edges="24-04-NE 27-00-NE">
		<stop index="0" parkingArea="25-02-NW" duration="20" parking="true"/>
	</route>
	<route id="3" type="passenger" edges="03-23-NW 03-27-SE">
		<stop index="0" parkingArea="26-03-NW" duration="20" parking="true"/>
	</route>
	<route id="4" type="passenger" edges="26-04-NE 01-27-SE">
		<stop index="0" parkingArea="02-26-NE" duration="20" parking="true"/>
	</route>
	<route id="5" type="passenger" edges="03-23-SE 01-23-NW">
		<stop index="0" parkingArea="27-03-NW" duration="20" parking="true"/>
	</route>
	<route id="6" type="passenger" edges="01-23-NW 02-27-SE">
		<stop index="0" parkingArea="04-25-NE" duration="20" parking="true"/>
	</route>
	<route id="7" type="passenger" edges="02-27-SE 03-23-NW">
		<stop index="0" parkingArea="27-01-NW" duration="20" parking="true"/>
	</route>
	<route id="8" type="passenger" edges="25-00-SW 26-00-NE">
		<stop index="0" parkingArea="03-25-SW" duration="20" parking="true"/>
	</route>
	<route id="9" type="passenger" edges="27-04-SW 03-23-NW">
		<stop index="0" parkingArea="25-02-SE" duration="20" parking="true"/>
	</route>
	<route id="10" type="passenger" edges="27-04-SW 03-27-SE">
		<stop index="0" parkingArea="04-24-NE" duration="20" parking="true"/>
	</route>
	<route id="11" type="passenger" edges="04-23-NW 01-23-NW">
		<stop index="0" parkingArea="24-01-SE" duration="20" parking="true"/>
	</route>
	<route id="12" type="passenger" edges="01-23-NW 25-00-NE">
		<stop index="0" parkingArea="26-01-NW" duration="20" parking="true"/>
	</route>
	<route id="13" type="passenger" edges="01-27-SE 27-00-NE">
		<stop index="0" parkingArea="03-24-SW" duration="20" parking="true"/>
	</route>
	<route id="14" type="passenger" edges="02-23-SE 03-27-NW">
		<stop index="0" parkingArea="27-01-NW" duration="20" parking="true"/>
	</route>
	<route id="15" type="passenger" edges="02-23-SE 03-27-NW">
		<stop index="0" parkingArea="27-02-SE" duration="20" parking="true"/>
	</route>
	<route id="16" type="passenger" edges="27-04-SW 24-04-NE">
		<stop index="0" parkingArea="04-26-NE" duration="20" parking="true"/>
	</route>
	<route id="17" type="passenger" edges="25-00-SW 03-23-SE">
		<stop index="0" parkingArea="24-02-NW" duration="20" parking="true"/>
	</route>
	<route id="18" type="passenger" edges="25-00-SW 27-04-SW">
		<stop index="0" parkingArea="27-03-SE" duration="20" parking="true"/>
	</route>
	<route id="19" type="passenger" edges="03-27-NW 27-04-SW">
		<stop index="0" parkingArea="01-24-SW" duration="20" parking="true"/>
	</route>
	<route id="20" type="passenger" edges="03-23-SE 27-00-NE">
		<stop index="0" parkingArea="03-25-SW" duration="20" parking="true"/>
	</route>
	<route id="21" type="passenger" edges="26-00-NE 27-04-NE">
		<stop index="0" parkingArea="24-02-SE" duration="20" parking="true"/>
	</route>
	<route id="22" type="passenger" edges="24-04-NE 26-00-NE">
		<stop index="0" parkingArea="24-03-NW" duration="20" parking="true"/>
	</route>
	<route id="23" type="passenger" edges="02-27-SE 01-27-SE">
		<stop index="0" parkingArea="03-24-SW" duration="20" parking="true"/>
	</route>
	<route id="24" type="passenger" edges="01-23-SE 27-00-SW">
		<stop index="0" parkingArea="04-24-SW" duration="20" parking="true"/>
	</route>
	<route id="25" type="passenger" edges="01-23-NW 04-27-NW">
		<stop index="0" parkingArea="24-03-NW" duration="20" parking="true"/>
	</route>
	<route id="26" type="passenger" edges="04-27-NW 27-04-NE">
		<stop index="0" parkingArea="26-03-NW" duration="20" parking="true"/>
	</route>
	<route id="27" type="passenger" edges="01-27-NW 01-23-NW">
		<stop index="0" parkingArea="25-02-SE" duration="20" parking="true"/>
	</route>
	<route id="28" type="passenger" edges="27-00-SW 26-00-NE">
		<stop index="0" parkingArea="24-03-NW" duration="20" parking="true"/>
	</route>
	<route id="29" type="passenger" edges="27-04-SW 03-27-NW">
		<stop index="0" parkingArea="26-02-NW" duration="20" parking="true"/>
	</route>
	<route id="30" type="passenger" edges="25-00-NE 26-04-NE">
		<stop index="0" parkingArea="24-01-NW" duration="20" parking="true"/>
	</route>
	<route id="31" type="passenger" edges="04-27-NW 26-00-NE">
		<stop index="0" parkingArea="03-26-SW" duration="20" parking="true"/>
	</route>
	<route id="32" type="passenger" edges="03-27-NW 01-23-SE">
		<stop index="0" parkingArea="26-02-SE" duration="20" parking="true"/>
	</route>
	<route id="33" type="passenger" edges="01-23-SE 04-27-NW">
		<stop index="0" parkingArea="02-24-NE" duration="20" parking="true"/>
	</route>
	<route id="34" type="passenger" edges="01-23-NW 24-04-NE">
		<stop index="0" parkingArea="24-01-SE" duration="20" parking="true"/>
	</route>
	<route id="35" type="passenger" edges="01-27-NW 01-27-SE">
		<stop index="0" parkingArea="04-26-SW" duration="20" parking="true"/>
	</route>
	<route id="36" type="passenger" edges="25-00-NE 03-23-SE">
		<stop index="0" parkingArea="26-01-SE" duration="20" parking="true"/>
	</route>
	<route id="37" type="passenger" edges="27-04-NE 03-27-NW">
		<stop index="0" parkingArea="03-26-SW" duration="20" parking="true"/>
	</route>
	<route id="38" type="passenger" edges="24-04-NE 25-00-NE">
		<stop index="0" parkingArea="27-01-SE" duration="20" parking="true"/>
	</route>
	<route id="39" type="passenger" edges="02-23-SE 27-04-NE">
		<stop index="0" parkingArea="25-02-SE" duration="20" parking="true"/>
	</route>
	<route id="40" type="passenger" edges="27-04-NE 02-27-SE">
		<stop index="0" parkingArea="27-03-SE" duration="20" parking="true"/>
	</route>
	<route id="41" type="passenger" edges="27-04-NE 27-00-NE">
		<stop index="0" parkingArea="26-02-SE" duration="20" parking="true"/>
	</route>
	<route id="42" type="passenger" edges="27-04-SW 25-00-SW">
		<stop index="0" parkingArea="01-26-SW" duration="20" parking="true"/>
	</route>
	<route id="43" type="passenger" edges="26-04-NE 26-00-NE">
		<stop index="0" parkingArea="27-01-SE" duration="20" parking="true"/>
	</route>
	<route id="44" type="passenger" edges="27-00-SW 01-23-SE">
		<stop index="0" parkingArea="04-26-SW" duration="20" parking="true"/>
	</route>
	<route id="45" type="passenger" edges="02-27-SE 26-04-NE">
		<stop index="0" parkingArea="26-02-NW" duration="20" parking="true"/>
	</route>
	<route id="46" type="passenger" edges="03-27-SE 25-00-SW">
		<stop index="0" parkingArea="27-01-SE" duration="20" parking="true"/>
	</route>
	<route id="47" type="passenger" edges="24-04-NE 25-00-NE">
		<stop index="0" parkingArea="27-02-NW" duration="20" parking="true"/>
	</route>
	<route id="48" type="passenger" edges="02-27-SE 01-27-SE">
		<stop index="0" parkingArea="02-26-NE" duration="20" parking="true"/>
	</route>
	<route id="49" type="passenger" edges="27-00-NE 03-27-SE">
		<stop index="0" parkingArea="04-25-NE" duration="20" parking="true"/>
	</route>
	<route id="50" type="passenger" edges="03-27-SE 02-23-SE">
		<stop index="0" parkingArea="26-02-NW" duration="20" parking="true"/>
	</route>
	<route id="51" type="passenger" edges="27-00-NE 27-04-SW">
		<stop index="0" parkingArea="24-01-SE" duration="20" parking="true"/>
	</route>
	<route id="52" type="passenger" edges="27-04-SW 27-00-SW">
		<stop index="0" parkingArea="04-24-SW" duration="20" parking="true"/>
	</route>
	<route id="53" type="passenger" edges="27-04-SW 02-23-SE">
		<stop index="0" parkingArea="24-02-SE" duration="20" parking="true"/>
	</route>
	<route id="54" type="passenger" edges="04-23-NW 01-27-NW">
		<stop index="0" parkingArea="02-26-NE" duration="20" parking="true"/>
	</route>
	<route id="55" type="passenger" edges="27-00-NE 24-04-NE">
		<stop index="0" parkingArea="27-03-NW" duration="20" parking="true"/>
	</route>
	<route id="56" type="passenger" edges="03-27-SE 27-04-NE">
		<stop index="0" parkingArea="02-25-SW" duration="20" parking="true"/>
	</route>
	<route id="57" type="passenger" edges="02-23-SE 04-27-NW">
		<stop index="0" parkingArea="04-24-SW" duration="20" parking="true"/>
	</route>
	<route id="58" type="passenger" edges="03-23-NW 25-00-SW">
		<stop index="0" parkingArea="02-24-SW" duration="20" parking="true"/>
	</route>
	<route id="59" type="passenger" edges="02-27-SE 25-00-SW">
		<stop index="0" parkingArea="24-01-NW" duration="20" parking="true"/>
	</route>
	<route id="60" type="passenger" edges="01-27-NW 03-27-SE">
		<stop index="0" parkingArea="25-02-SE" duration="20" parking="true"/>
	</route>
	<route id="61" type="passenger" edges="25-00-NE 25-00-SW">
		<stop index="0" parkingArea="27-03-NW" duration="20" parking="true"/>
	</route>
	<route id="62" type="passenger" edges="03-27-NW 24-04-NE">
		<stop index="0" parkingArea="03-24-SW" duration="20" parking="true"/>
	</route>
	<route id="63" type="passenger" edges="27-04-NE 01-23-NW">
		<stop index="0" parkingArea="02-25-NE" duration="20" parking="true"/>
	</route>
	<route id="64" type="passenger" edges="03-23-SE 26-04-NE">
		<stop index="0" parkingArea="01-24-SW" duration="20" parking="true"/>
	</route>
	<route id="65" type="passenger" edges="03-23-SE 02-23-SE">
		<stop index="0" parkingArea="25-02-NW" duration="20" parking="true"/>
	</route>
	<route id="66" type="passenger" edges="04-27-NW 03-27-NW">
		<stop index="0" parkingArea="02-24-SW" duration="20" parking="true"/>
	</route>
	<route id="67" type="passenger" edges="26-04-NE 27-00-NE">
		<stop index="0" parkingArea="26-01-NW" duration="20" parking="true"/>
	</route>
	<route id="68" type="passenger" edges="01-23-NW 01-23-SE">
		<stop index="0" parkingArea="04-25-NE" duration="20" parking="true"/>
	</route>
	<route id="69" type="passenger" edges="24-04-NE 27-04-SW">
		<stop index="0" parkingArea="26-01-SE" duration="20" parking="true"/>
	</route>
	<route id="70" type="passenger" edges="27-04-SW 27-04-NE">
		<stop index="0" parkingArea="02-26-SW" duration="20" parking="true"/>
	</route>
	<route id="71" type="passenger" edges="01-27-NW 26-00-NE">
		<stop index="0" parkingArea="27-03-SE" duration="20" parking="true"/>
	</route>
	<route id="72" type="passenger" edges="02-23-SE 03-27-NW">
		<stop index="0" parkingArea="02-26-NE" duration="20" parking="true"/>
	</route>
	<route id="73" type="passenger" edges="02-27-SE 27-00-SW">
		<stop index="0" parkingArea="02-24-NE" duration="20" parking="true"/>
	</route>
	<route id="74" type="passenger" edges="04-27-NW 25-00-SW">
		<stop index="0" parkingArea="04-24-NE" duration="20" parking="true"/>
	</route>
	<route id="75" type="passenger" edges="27-04-SW 01-27-NW">
		<stop index="0" parkingArea="02-24-SW" duration="20" parking="true"/>
	</route>
	<route id="76" type="passenger" edges="04-23-NW 27-04-SW">
		<stop index="0" parkingArea="04-24-NE" duration="20" parking="true"/>
	</route>
	<route id="77" type="passenger" edges="01-23-NW 03-23-SE">
		<stop index="0" parkingArea="24-01-SE" duration="20" parking="true"/>
	</route>
	<route id="78" type="passenger" edges="02-27-SE 24-04-NE">
		<stop index="0" parkingArea="01-26-SW" duration="20" parking="true"/>
	</route>
	<route id="79" type="passenger" edges="27-04-NE 02-27-SE">
		<stop index="0" parkingArea="26-02-NW" duration="20" parking="true"/>
	</route>
	<route id="80" type="passenger" edges="27-00-SW 01-23-SE">
		<stop index="0" parkingArea="03-24-SW" duration="20" parking="true"/>
	</route>
	<route id="81" type="passenger" edges="01-27-NW 01-23-NW">
		<stop index="0" parkingArea="03-24-SW" duration="20" parking="true"/>
	</route>
	<route id="82" type="passenger" edges="25-00-NE 03-27-SE">
		<stop index="0" parkingArea="01-26-SW" duration="20" parking="true"/>
	</route>
	<route id="83" type="passenger" edges="03-23-SE 02-23-SE">
		<stop index="0" parkingArea="25-01-NW" duration="20" parking="true"/>
	</route>
	<route id="84" type="passenger" edges="01-23-SE 03-23-SE">
		<stop index="0" parkingArea="02-24-SW" duration="20" parking="true"/>
	</route>
	<route id="85" type="passenger" edges="27-04-SW 01-23-SE">
		<stop index="0" parkingArea="24-01-SE" duration="20" parking="true"/>
	</route>
	<route id="86" type="passenger" edges="03-23-SE 03-23-NW">
		<stop index="0" parkingArea="27-03-SE" duration="20" parking="true"/>
	</route>
	<route id="87" type="passenger" edges="24-04-NE 26-00-NE">
		<stop index="0" parkingArea="27-01-SE" duration="20" parking="true"/>
	</route>
	<route id="88" type="passenger" edges="27-04-NE 03-23-NW">
		<stop index="0" parkingArea="26-02-NW" duration="20" parking="true"/>
	</route>
	<route id="89" type="passenger" edges="27-04-SW 27-00-SW">
		<stop index="0" parkingArea="27-03-NW" duration="20" parking="true"/>
	</route>
	<route id="90" type="passenger" edges="01-23-NW 03-23-SE">
		<stop index="0" parkingArea="04-26-NE" duration="20" parking="true"/>
	</route>
	<route id="91" type="passenger" edges="25-00-SW 26-00-NE">
		<stop index="0" parkingArea="25-02-NW" duration="20" parking="true"/>
	</route>
	<route id="92" type="passenger" edges="27-00-SW 03-23-NW">
		<stop index="0" parkingArea="25-02-NW" duration="20" parking="true"/>
	</route>
	<route id="93" type="passenger" edges="27-00-NE 25-00-NE">
		<stop index="0" parkingArea="02-24-SW" duration="20" parking="true"/>
	</route>
	<route id="94" type="passenger" edges="03-27-SE 25-00-SW">
		<stop index="0" parkingArea="02-24-SW" duration="20" parking="true"/>
	</route>
	<route id="95" type="passenger" edges="04-23-NW 03-23-SE">
		<stop index="0" parkingArea="24-02-SE" duration="20" parking="true"/>
	</route>
	<route id="96" type="passenger" edges="27-04-NE 01-23-NW">
		<stop index="0" parkingArea="25-02-NW" duration="20" parking="true"/>
	</route>
	<route id="97" type="passenger" edges="02-23-SE 03-23-NW">
		<stop index="0" parkingArea="01-25-SW" duration="20" parking="true"/>
	</route>
	<route id="98" type="passenger" edges="02-27-SE 01-27-SE">
		<stop index="0" parkingArea="24-03-NW" duration="20" parking="true"/>
	</route>
	<route id="99" type="passenger" edges="27-04-SW 01-23-SE">
		<stop index="0" parkingArea="01-24-NE" duration="20" parking="true"/>
	</route>
	<route id="100" type="passenger" edges="27-00-SW 02-23-SE">
		<stop index="0" parkingArea="26-03-NW" duration="20" parking="true"/>
	</route>
	<route id="101" type="passenger" edges="01-23-SE 04-23-NW">
		<stop index="0" parkingArea="03-26-SW" duration="20" parking="true"/>
	</route>
	<route id="102" type="passenger" edges="27-00-NE 26-04-NE">
		<stop index="0" parkingArea="27-02-SE" duration="20" parking="true"/>
	</route>
	<route id="103" type="passenger" edges="03-27-SE 27-00-NE">
		<stop index="0" parkingArea="24-02-SE" duration="20" parking="true"/>
	</route>
	<route id="104" type="passenger" edges="02-23-SE 27-00-NE">
		<stop index="0" parkingArea="04-26-SW" duration="20" parking="true"/>
	</route>
	<route id="105" type="passenger" edges="02-27-SE 03-27-NW">
		<stop index="0" parkingArea="03-26-SW" duration="20" parking="true"/>
	</route>
	<route id="106" type="passenger" edges="26-00-NE 25-00-SW">
		<stop index="0" parkingArea="24-02-SE" duration="20" parking="true"/>
	</route>
	<route id="107" type="passenger" edges="27-04-NE 27-04-NE">
		<stop index="0" parkingArea="03-26-SW" duration="20" parking="true"/>
	</route>
	<route id="108" type="passenger" edges="01-23-SE 26-00-NE">
		<stop index="0" parkingArea="27-03-NW" duration="20" parking="true"/>
	</route>
	<route id="109" type="passenger" edges="03-23-SE 01-27-NW">
		<stop index="0" parkingArea="04-26-SW" duration="20" parking="true"/>
	</route>
	<route id="110" type="passenger" edges="27-00-SW 25-00-SW">
		<stop index="0" parkingArea="25-02-SE" duration="20" parking="true"/>
	</route>
	<route id="111" type="passenger" edges="25-00-NE 27-04-SW">
		<stop index="0" parkingArea="04-26-NE" duration="20" parking="true"/>
	</route>
	<route id="112" type="passenger" edges="02-27-SE 01-23-NW">
		<stop index="0" parkingArea="27-02-SE" duration="20" parking="true"/>
	</route>
	<route id="113" type="passenger" edges="02-23-SE 24-04-NE">
		<stop index="0" parkingArea="27-02-SE" duration="20" parking="true"/>
	</route>
	<route id="114" type="passenger" edges="24-04-NE 26-00-NE">
		<stop index="0" parkingArea="01-24-SW" duration="20" parking="true"/>
	</route>
	<route id="115" type="passenger" edges="26-04-NE 27-00-NE">
		<stop index="0" parkingArea="24-02-SE" duration="20" parking="true"/>
	</route>
	<route id="116" type="passenger" edges="25-00-SW 02-27-SE">
		<stop index="0" parkingArea="04-26-SW" duration="20" parking="true"/>
	</route>
	<route id="117" type="passenger" edges="03-23-SE 03-27-NW">
		<stop index="0" parkingArea="24-02-NW" duration="20" parking="true"/>
	</route>
	<route id="118" type="passenger" edges="27-04-SW 02-23-SE">
		<stop index="0" parkingArea="03-25-NE" duration="20" parking="true"/>
	</route>
	<route id="119" type="passenger" edges="24-04-NE 01-23-SE">
		<stop index="0" parkingArea="01-26-SW" duration="20" parking="true"/>
	</route>
	<route id="120" type="passenger" edges="01-27-SE 02-27-SE">
		<stop index="0" parkingArea="01-25-NE" duration="20" parking="true"/>
	</route>
	<route id="121" type="passenger" edges="25-00-NE 03-23-SE">
		<stop index="0" parkingArea="27-03-NW" duration="20" parking="true"/>
	</route>
	<route id="122" type="passenger" edges="27-00-NE 26-00-NE">
		<stop index="0" parkingArea="03-25-NE" duration="20" parking="true"/>
	</route>
	<route id="123" type="passenger" edges="27-00-SW 03-23-SE">
		<stop index="0" parkingArea="01-25-SW" duration="20" parking="true"/>
	</route>
	<route id="124" type="passenger" edges="03-23-SE 01-23-NW">
		<stop index="0" parkingArea="01-25-NE" duration="20" parking="true"/>
	</route>
	<route id="125" type="passenger" edges="24-04-NE 26-00-NE">
		<stop index="0" parkingArea="25-03-NW" duration="20" parking="true"/>
	</route>
	<route id="126" type="passenger" edges="01-27-NW 03-27-NW">
		<stop index="0" parkingArea="03-25-SW" duration="20" parking="true"/>
	</route>
	<route id="127" type="passenger" edges="25-00-NE 26-04-NE">
		<stop index="0" parkingArea="04-25-SW" duration="20" parking="true"/>
	</route>
	<route id="128" type="passenger" edges="03-27-NW 04-23-NW">
		<stop index="0" parkingArea="27-03-NW" duration="20" parking="true"/>
	</route>
	<route id="129" type="passenger" edges="27-04-SW 03-27-SE">
		<stop index="0" parkingArea="26-01-SE" duration="20" parking="true"/>
	</route>
	<route id="130" type="passenger" edges="04-27-NW 02-23-SE">
		<stop index="0" parkingArea="26-03-SE" duration="20" parking="true"/>
	</route>
	<route id="131" type="passenger" edges="03-27-SE 25-00-SW">
		<stop index="0" parkingArea="04-25-NE" duration="20" parking="true"/>
	</route>
	<route id="132" type="passenger" edges="02-27-SE 27-04-NE">
		<stop index="0" parkingArea="25-03-NW" duration="20" parking="true"/>
	</route>
	<route id="133" type="passenger" edges="01-27-NW 04-23-NW">
		<stop index="0" parkingArea="03-24-NE" duration="20" parking="true"/>
	</route>
	<route id="134" type="passenger" edges="01-23-NW 01-23-SE">
		<stop index="0" parkingArea="26-01-NW" duration="20" parking="true"/>
	</route>
	<route id="135" type="passenger" edges="25-00-NE 01-27-NW">
		<stop index="0" parkingArea="03-24-SW" duration="20" parking="true"/>
	</route>
	<route id="136" type="passenger" edges="25-00-SW 03-27-NW">
		<stop index="0" parkingArea="25-02-SE" duration="20" parking="true"/>
	</route>
	<route id="137" type="passenger" edges="02-27-SE 03-27-SE">
		<stop index="0" parkingArea="03-24-SW" duration="20" parking="true"/>
	</route>
	<route id="138" type="passenger" edges="04-27-NW 03-27-SE">
		<stop index="0" parkingArea="26-02-SE" duration="20" parking="true"/>
	</route>
	<route id="139" type="passenger" edges="03-23-NW 02-23-SE">
		<stop index="0" parkingArea="25-02-SE" duration="20" parking="true"/>
	</route>
	<route id="140" type="passenger" edges="27-00-NE 27-00-NE">
		<stop index="0" parkingArea="24-01-SE" duration="20" parking="true"/>
	</route>
	<route id="141" type="passenger" edges="27-04-SW 04-23-NW">
		<stop index="0" parkingArea="04-26-NE" duration="20" parking="true"/>
	</route>
	<route id="142" type="passenger" edges="03-23-SE 04-27-NW">
		<stop index="0" parkingArea="04-26-SW" duration="20" parking="true"/>
	</route>
	<route id="143" type="passenger" edges="27-00-NE 01-27-SE">
		<stop index="0" parkingArea="26-02-NW" duration="20" parking="true"/>
	</route>
	<route id="144" type="passenger" edges="04-27-NW 25-00-SW">
		<stop index="0" parkingArea="02-26-SW" duration="20" parking="true"/>
	</route>
	<route id="145" type="passenger" edges="02-27-SE 03-27-NW">
		<stop index="0" parkingArea="27-01-SE" duration="20" parking="true"/>
	</route>
	<route id="146" type="passenger" edges="03-23-SE 27-00-SW">
		<stop index="0" parkingArea="27-01-NW" duration="20" parking="true"/>
	</route>
	<route id="147" type="passenger" edges="02-27-SE 27-04-SW">
		<stop index="0" parkingArea="02-24-SW" duration="20" parking="true"/>
	</route>
	<route id="148" type="passenger" edges="27-00-NE 27-04-SW">
		<stop index="0" parkingArea="04-25-NE" duration="20" parking="true"/>
	</route>
	<route id="149" type="passenger" edges="03-23-SE 25-00-SW">
		<stop index="0" parkingArea="27-02-SE" duration="20" parking="true"/>
	</route>
	<route id="150" type="passenger" edges="03-27-NW 27-00-NE">
		<stop index="0" parkingArea="24-03-NW" duration="20" parking="true"/>
	</route>
	<route id="151" type="passenger" edges="25-00-SW 27-04-SW">
		<stop index="0" parkingArea="01-25-NE" duration="20" parking="true"/>
	</route>
	<route id="152" type="passenger" edges="26-00-NE 03-23-NW">
		<stop index="0" parkingArea="24-03-NW" duration="20" parking="true"/>
	</route>
	<route id="153" type="passenger" edges="01-23-NW 27-00-NE">
		<stop index="0" parkingArea="26-03-NW" duration="20" parking="true"/>
	</route>
	<route id="154" type="passenger" edges="02-27-SE 25-00-NE">
		<stop index="0" parkingArea="27-01-SE" duration="20" parking="true"/>
	</route>
	<route id="155" type="passenger" edges="03-27-SE 24-04-NE">
		<stop index="0" parkingArea="04-26-SW" duration="20" parking="true"/>
	</route>
	<route id="156" type="passenger" edges="01-23-NW 27-04-SW">
		<stop index="0" parkingArea="27-03-NW" duration="20" parking="true"/>
	</route>
	<route id="157" type="passenger" edges="03-27-SE 27-04-SW">
		<stop index="0" parkingArea="03-25-SW" duration="20" parking="true"/>
	</route>
	<route id="158" type="passenger" edges="03-27-NW 03-27-SE">
		<stop index="0" parkingArea="04-24-NE" duration="20" parking="true"/>
	</route>
	<route id="159" type="passenger" edges="27-00-NE 04-27-NW">
		<stop index="0" parkingArea="04-25-NE" duration="20" parking="true"/>
	</route>
	<route id="160" type="passenger" edges="24-04-NE 03-23-NW">
		<stop index="0" parkingArea="24-01-SE" duration="20" parking="true"/>
	</route>
	<route id="161" type="passenger" edges="03-27-NW 03-27-NW">
		<stop index="0" parkingArea="25-02-SE" duration="20" parking="true"/>
	</route>
	<route id="162" type="passenger" edges="27-04-NE 02-23-SE">
		<stop index="0" parkingArea="02-25-NE" duration="20" parking="true"/>
	</route>
	<route id="163" type="passenger" edges="25-00-SW 26-04-NE">
		<stop index="0" parkingArea="02-25-SW" duration="20" parking="true"/>
	</route>
	<route id="164" type="passenger" edges="01-23-NW 01-27-NW">
		<stop index="0" parkingArea="01-24-NE" duration="20" parking="true"/>
	</route>
	<route id="165" type="passenger" edges="01-23-SE 27-00-SW">
		<stop index="0" parkingArea="01-24-NE" duration="20" parking="true"/>
	</route>
	<route id="166" type="passenger" edges="03-27-SE 02-27-SE">
		<stop index="0" parkingArea="01-25-NE" duration="20" parking="true"/>
	</route>
	<route id="167" type="passenger" edges="27-04-NE 03-23-NW">
		<stop index="0" parkingArea="01-25-NE" duration="20" parking="true"/>
	</route>
	<route id="168" type="passenger" edges="01-23-SE 04-27-NW">
		<stop index="0" parkingArea="02-25-NE" duration="20" parking="true"/>
	</route>
	<route id="169" type="passenger" edges="01-23-SE 26-04-NE">
		<stop index="0" parkingArea="26-03-NW" duration="20" parking="true"/>
	</route>
	<route id="170" type="passenger" edges="03-23-SE 01-23-NW">
		<stop index="0" parkingArea="01-25-SW" duration="20" parking="true"/>
	</route>
	<route id="171" type="passenger" edges="01-23-NW 04-27-NW">
		<stop index="0" parkingArea="24-01-NW" duration="20" parking="true"/>
	</route>
	<route id="172" type="passenger" edges="03-23-NW 27-04-SW">
		<stop index="0" parkingArea="26-01-SE" duration="20" parking="true"/>
	</route>
	<route id="173" type="passenger" edges="27-00-SW 03-23-NW">
		<stop index="0" parkingArea="04-26-NE" duration="20" parking="true"/>
	</route>
	<route id="174" type="passenger" edges="27-00-SW 03-27-SE">
		<stop index="0" parkingArea="27-02-SE" duration="20" parking="true"/>
	</route>
	<route id="175" type="passenger" edges="25-00-NE 25-00-NE">
		<stop index="0" parkingArea="24-01-NW" duration="20" parking="true"/>
	</route>
	<route id="176" type="passenger" edges="25-00-SW 26-00-NE">
		<stop index="0" parkingArea="25-03-NW" duration="20" parking="true"/>
	</route>
	<route id="177" type="passenger" edges="02-23-SE 03-23-SE">
		<stop index="0" parkingArea="26-03-SE" duration="20" parking="true"/>
	</route>
	<route id="178" type="passenger" edges="27-04-SW 01-23-NW">
		<stop index="0" parkingArea="04-25-SW" duration="20" parking="true"/>
	</route>
	<route id="179" type="passenger" edges="04-27-NW 03-23-SE">
		<stop index="0" parkingArea="25-03-NW" duration="20" parking="true"/>
	</route>
	<route id="180" type="passenger" edges="26-04-NE 02-27-SE">
		<stop index="0" parkingArea="04-25-NE" duration="20" parking="true"/>
	</route>
	<route id="181" type="passenger" edges="01-23-NW 03-23-SE">
		<stop index="0" parkingArea="25-01-SE" duration="20" parking="true"/>
	</route>
	<route id="182" type="passenger" edges="01-23-NW 25-00-SW">
		<stop index="0" parkingArea="27-02-SE" duration="20" parking="true"/>
	</route>
	<route id="183" type="passenger" edges="01-27-SE 03-23-SE">
		<stop index="0" parkingArea="26-02-NW" duration="20" parking="true"/>
	</route>
	<route id="184" type="passenger" edges="26-04-NE 03-23-NW">
		<stop index="0" parkingArea="01-24-SW" duration="20" parking="true"/>
	</route>
	<route id="185" type="passenger" edges="26-04-NE 01-23-NW">
		<stop index="0" parkingArea="26-01-NW" duration="20" parking="true"/>
	</route>
	<route id="186" type="passenger" edges="01-27-NW 02-23-SE">
		<stop index="0" parkingArea="03-25-NE" duration="20" parking="true"/>
	</route>
	<route id="187" type="passenger" edges="04-27-NW 01-23-NW">
		<stop index="0" parkingArea="25-02-NW" duration="20" parking="true"/>
	</route>
	<route id="188" type="passenger" edges="27-04-NE 25-00-SW">
		<stop index="0" parkingArea="25-03-NW" duration="20" parking="true"/>
	</route>
	<route id="189" type="passenger" edges="02-23-SE 01-27-SE">
		<stop index="0" parkingArea="24-02-SE" duration="20" parking="true"/>
	</route>
	<route id="190" type="passenger" edges="27-00-NE 02-23-SE">
		<stop index="0" parkingArea="04-25-SW" duration="20" parking="true"/>
	</route>
	<route id="191" type="passenger" edges="27-04-SW 04-23-NW">
		<stop index="0" parkingArea="24-02-SE" duration="20" parking="true"/>
	</route>
	<route id="192" type="passenger" edges="03-23-SE 25-00-SW">
		<stop index="0" parkingArea="24-01-NW" duration="20" parking="true"/>
	</route>
	<route id="193" type="passenger" edges="03-23-NW 04-23-NW">
		<stop index="0" parkingArea="27-01-SE" duration="20" parking="true"/>
	</route>
	<route id="194" type="passenger" edges="02-27-SE 04-23-NW">
		<stop index="0" parkingArea="02-26-SW" duration="20" parking="true"/>
	</route>
	<route id="195" type="passenger" edges="27-00-SW 03-23-SE">
		<stop index="0" parkingArea="03-25-SW" duration="20" parking="true"/>
	</route>
	<route id="196" type="passenger" edges="03-23-NW 27-00-NE">
		<stop index="0" parkingArea="27-02-NW" duration="20" parking="true"/>
	</route>
	<route id="197" type="passenger" edges="25-00-NE 03-27-NW">
		<stop index="0" parkingArea="01-24-SW" duration="20" parking="true"/>
	</route>
	<route id="198" type="passenger" edges="01-27-SE 01-23-SE">
		<stop index="0" parkingArea="24-03-NW" duration="20" parking="true"/>
	</route>
	<route id="199" type="passenger" edges="27-00-NE 26-04-NE">
		<stop index="0" parkingArea="04-25-NE" duration="20" parking="true"/>
	</route>
	<route id="200" type="passenger" edges="25-00-SW 24-04-NE">
		<stop index="0" parkingArea="25-02-NW" duration="20" parking="true"/>
	</route>
	<route id="201" type="passenger" edges="25-00-SW 03-23-SE">
		<stop index="0" parkingArea="25-02-SE" duration="20" parking="true"/>
	</route>
	<route id="202" type="passenger" edges="03-27-NW 24-04-NE">
		<stop index="0" parkingArea="26-02-NW" duration="20" parking="true"/>
	</route>
	<route id="203" type="passenger" edges="03-23-SE 01-27-SE">
		<stop index="0" parkingArea="26-02-NW" duration="20" parking="true"/>
	</route>
	<route id="204" type="passenger" edges="27-04-SW 03-27-NW">
		<stop index="0" parkingArea="27-01-NW" duration="20" parking="true"/>
	</route>
	<route id="205" type="passenger" edges="27-00-NE 26-00-NE">
		<stop index="0" parkingArea="04-24-SW" duration="20" parking="true"/>
	</route>
	<route id="206" type="passenger" edges="02-27-SE 01-23-NW">
		<stop index="0" parkingArea="02-26-SW" duration="20" parking="true"/>
	</route>
	<route id="207" type="passenger" edges="27-00-SW 03-27-SE">
		<stop index="0" parkingArea="25-03-NW" duration="20" parking="true"/>
	</route>
	<route id="208" type="passenger" edges="27-04-SW 03-27-NW">
		<stop index="0" parkingArea="27-03-NW" duration="20" parking="true"/>