<?xml version="1.0" encoding="UTF-8"?>
              <routes xmlns:xsi="http://www.w3.org/2001/XMLSchema-instance" xsi:noNamespaceSchemaLocation="http://sumo.dlr.de/xsd/routes_file.xsd">
              
	<vType id="ncv" vClass="passenger" guiShape="passenger/sedan" color="255,183,59"></vType>

    <vType id="f" vClass="passenger" guiShape="passenger/hatchback" color="192,192,192"></vType>

    <vType id="cv" vClass="passenger" guiShape="evehicle" color="245,39,224"></vType>
          
	<flow id="back_0" begin="0" end="3700" number="0" from="A0" to="E30" type="f"/>
	<flow id="back_1" begin="0" end="3700" number="0" from="A1" to="E01" type="f"/>
	<flow id="back_2" begin="0" end="3700" number="0" from="A2" to="E12" type="f"/>
	<flow id="back_3" begin="0" end="3700" number="0" from="A3" to="E23" type="f"/>
	<trip id="ncv_0" depart="100" from="A1" to="E12" type="ncv">
        <stop index="0" parkingArea="P12" duration="180" parking="true"/>
    </trip>
	<trip id="cv_1" depart="100" from="A3" to="E30" type="cv">
        <stop index="0" parkingArea="P30" duration="90" parking="true"/>
    </trip>
	<trip id="cv_2" depart="104" from="A0" to="E01" type="cv">
        <stop index="0" parkingArea="P01" duration="90" parking="true"/>
    </trip>
	<trip id="cv_3" depart="106" from="A1" to="E12" type="cv">
        <stop index="0" parkingArea="P12" duration="90" parking="true"/>
    </trip>
	<trip id="ncv_4" depart="109" from="A1" to="E12" type="ncv">
        <stop index="0" parkingArea="P12" duration="180" parking="true"/>
    </trip>
	<trip id="ncv_5" depart="113" from="A1" to="E12" type="ncv">
        <stop index="0" parkingArea="P12" duration="180" parking="true"/>
    </trip>
	<trip id="ncv_6" depart="132" from="A2" to="E23" type="ncv">
        <stop index="0" parkingArea="P23" duration="180" parking="true"/>
    </trip>
	<trip id="cv_7" depart="136" from="A2" to="E23" type="cv">
        <stop index="0" parkingArea="P23" duration="90" parking="true"/>
    </trip>
	<trip id="cv_8" depart="139" from="A3" to="E30" type="cv">
        <stop index="0" parkingArea="P30" duration="90" parking="true"/>
    </trip>
	<trip id="cv_9" depart="150" from="A1" to="E12" type="cv">
        <stop index="0" parkingArea="P12" duration="90" parking="true"/>
    </trip>
	<trip id="cv_10" depart="154" from="A1" to="E12" type="cv">
        <stop index="0" parkingArea="P12" duration="90" parking="true"/>
    </trip>
	<trip id="cv_11" depart="157" from="A0" to="E01" type="cv">
        <stop index="0" parkingArea="P01" duration="90" parking="true"/>
    </trip>
	<trip id="ncv_12" depart="158" from="A1" to="E12" type="ncv">
        <stop index="0" parkingArea="P12" duration="180" parking="true"/>
    </trip>
	<trip id="ncv_13" depart="160" from="A1" to="E12" type="ncv">
        <stop index="0" parkingArea="P12" duration="180" parking="true"/>
    </trip>
	<trip id="cv_14" depart="162" from="A3" to="E30" type="cv">
        <stop index="0" parkingArea="P30" duration="90" parking="true"/>
    </trip>
	<trip id="ncv_15" depart="166" from="A0" to="E01" type="ncv">
        <stop index="0" parkingArea="P01" duration="180" parking="true"/>
    </trip>
	<trip id="cv_16" depart="176" from="A2" to="E23" type="cv">
        <stop index="0" parkingArea="P23" duration="90" parking="true"/>
    </trip>
	<trip id="ncv_17" depart="182" from="A3" to="E30" type="ncv">
        <stop index="0" parkingArea="P30" duration="180" parking="true"/>
    </trip>
	<trip id="cv_18" depart="183" from="A3" to="E30" type="cv">
        <stop index="0" parkingArea="P30" duration="90" parking="true"/>
    </trip>
	<trip id="cv_19" depart="188" from="A1" to="E12" type="cv">
        <stop index="0" parkingArea="P12" duration="90" parking="true"/>
    </trip>
	<trip id="cv_20" depart="189" from="A2" to="E23" type="cv">
        <stop index="0" parkingArea="P23" duration="90" parking="true"/>
    </trip>
	<trip id="cv_21" depart="193" from="A1" to="E12" type="cv">
        <stop index="0" parkingArea="P12" duration="90" parking="true"/>
    </trip>
	<trip id="cv_22" depart="209" from="A1" to="E12" type="cv">
        <stop index="0" parkingArea="P12" duration="90" parking="true"/>
    </trip>
	<trip id="ncv_23" depart="213" from="A2" to="E23" type="ncv">
        <stop index="0" parkingArea="P23" duration="180" parking="true"/>
    </trip>
	<trip id="ncv_24" depart="229" from="A1" to="E12" type="ncv">
        <stop index="0" parkingArea="P12" duration="180" parking="true"/>
    </trip>
	<trip id="ncv_25" depart="232" from="A3" to="E30" type="ncv">
        <stop index="0" parkingArea="P30" duration="180" parking="true"/>
    </trip>
	<trip id="cv_26" depart="235" from="A0" to="E01" type="cv">
        <stop index="0" parkingArea="P01" duration="90" parking="true"/>
    </trip>
	<trip id="cv_27" depart="237" from="A3" to="E30" type="cv">
        <stop index="0" parkingArea="P30" duration="90" parking="true"/>
    </trip>
	<trip id="ncv_28" depart="244" from="A3" to="E30" type="ncv">
        <stop index="0" parkingArea="P30" duration="180" parking="true"/>
    </trip>
	<trip id="cv_29" depart="245" from="A3" to="E30" type="cv">
        <stop index="0" parkingArea="P30" duration="90" parking="true"/>
    </trip>
	<trip id="cv_30" depart="246" from="A2" to="E23" type="cv">
        <stop index="0" parkingArea="P23" duration="90" parking="true"/>
    </trip>
	<trip id="ncv_31" depart="247" from="A3" to="E30" type="ncv">
        <stop index="0" parkingArea="P30" duration="180" parking="true"/>
    </trip>
	<trip id="cv_32" depart="249" from="A1" to="E12" type="cv">
        <stop index="0" parkingArea="P12" duration="90" parking="true"/>
    </trip>
	<trip id="cv_33" depart="254" from="A2" to="E23" type="cv">
        <stop index="0" parkingArea="P23" duration="90" parking="true"/>
    </trip>
	<trip id="ncv_34" depart="258" from="A0" to="E01" type="ncv">
        <stop index="0" parkingArea="P01" duration="180" parking="true"/>
    </trip>
	<trip id="ncv_35" depart="259" from="A1" to="E12" type="ncv">
        <stop index="0" parkingArea="P12" duration="180" parking="true"/>
    </trip>
	<trip id="cv_36" depart="261" from="A1" to="E12" type="cv">
        <stop index="0" parkingArea="P12" duration="90" parking="true"/>
    </trip>
	<trip id="cv_37" depart="261" from="A3" to="E30" type="cv">
        <stop index="0" parkingArea="P30" duration="90" parking="true"/>
    </trip>
	<trip id="cv_38" depart="265" from="A0" to="E01" type="cv">
        <stop index="0" parkingArea="P01" duration="90" parking="true"/>
    </trip>
	<trip id="cv_39" depart="266" from="A2" to="E23" type="cv">
        <stop index="0" parkingArea="P23" duration="90" parking="true"/>
    </trip>
	<trip id="cv_40" depart="266" from="A3" to="E30" type="cv">
        <stop index="0" parkingArea="P30" duration="90" parking="true"/>
    </trip>
	<trip id="cv_41" depart="268" from="A2" to="E23" type="cv">
        <stop index="0" parkingArea="P23" duration="90" parking="true"/>
    </trip>
	<trip id="cv_42" depart="272" from="A2" to="E23" type="cv">
        <stop index="0" parkingArea="P23" duration="90" parking="true"/>
    </trip>
	<trip id="ncv_43" depart="272" from="A2" to="E23" type="ncv">
        <stop index="0" parkingArea="P23" duration="180" parking="true"/>
    </trip>
	<trip id="cv_44" depart="273" from="A2" to="E23" type="cv">
        <stop index="0" parkingArea="P23" duration="90" parking="true"/>
    </trip>
	<trip id="ncv_45" depart="285" from="A0" to="E01" type="ncv">
        <stop index="0" parkingArea="P01" duration="180" parking="true"/>
    </trip>
	<trip id="cv_46" depart="287" from="A1" to="E12" type="cv">
        <stop index="0" parkingArea="P12" duration="90" parking="true"/>
    </trip>
	<trip id="ncv_47" depart="291" from="A1" to="E12" type="ncv">
        <stop index="0" parkingArea="P12" duration="180" parking="true"/>
    </trip>
	<trip id="ncv_48" depart="292" from="A3" to="E30" type="ncv">
        <stop index="0" parkingArea="P30" duration="180" parking="true"/>
    </trip>
	<trip id="cv_49" depart="297" from="A2" to="E23" type="cv">
        <stop index="0" parkingArea="P23" duration="90" parking="true"/>
    </trip>
	<trip id="ncv_50" depart="304" from="A1" to="E12" type="ncv">
        <stop index="0" parkingArea="P12" duration="180" parking="true"/>
    </trip>
	<trip id="ncv_51" depart="327" from="A3" to="E30" type="ncv">
        <stop index="0" parkingArea="P30" duration="180" parking="true"/>
    </trip>
	<trip id="cv_52" depart="337" from="A1" to="E12" type="cv">
        <stop index="0" parkingArea="P12" duration="90" parking="true"/>
    </trip>
	<trip id="ncv_53" depart="346" from="A3" to="E30" type="ncv">
        <stop index="0" parkingArea="P30" duration="180" parking="true"/>
    </trip>
	<trip id="cv_54" depart="350" from="A1" to="E12" type="cv">
        <stop index="0" parkingArea="P12" duration="90" parking="true"/>
    </trip>
	<trip id="cv_55" depart="350" from="A1" to="E12" type="cv">
        <stop index="0" parkingArea="P12" duration="90" parking="true"/>
    </trip>
	<trip id="ncv_56" depart="350" from="A2" to="E23" type="ncv">
        <stop index="0" parkingArea="P23" duration="180" parking="true"/>
    </trip>
	<trip id="ncv_57" depart="354" from="A0" to="E01" type="ncv">
        <stop index="0" parkingArea="P01" duration="180" parking="true"/>
    </trip>
	<trip id="cv_58" depart="355" from="A0" to="E01" type="cv">
        <stop index="0" parkingArea="P01" duration="90" parking="true"/>
    </trip>
	<trip id="cv_59" depart="355" from="A3" to="E30" type="cv">
        <stop index="0" parkingArea="P30" duration="90" parking="true"/>
    </trip>
	<trip id="cv_60" depart="357" from="A0" to="E01" type="cv">
        <stop index="0" parkingArea="P01" duration="90" parking="true"/>
    </trip>
	<trip id="ncv_61" depart="361" from="A1" to="E12" type="ncv">
        <stop index="0" parkingArea="P12" duration="180" parking="true"/>
    </trip>
	<trip id="ncv_62" depart="361" from="A2" to="E23" type="ncv">
        <stop index="0" parkingArea="P23" duration="180" parking="true"/>
    </trip>
	<trip id="cv_63" depart="368" from="A3" to="E30" type="cv">
        <stop index="0" parkingArea="P30" duration="90" parking="true"/>
    </trip>
	<trip id="ncv_64" depart="369" from="A2" to="E23" type="ncv">
        <stop index="0" parkingArea="P23" duration="180" parking="true"/>
    </trip>
	<trip id="cv_65" depart="371" from="A3" to="E30" type="cv">
        <stop index="0" parkingArea="P30" duration="90" parking="true"/>
    </trip>
	<trip id="cv_66" depart="371" from="A3" to="E30" type="cv">
        <stop index="0" parkingArea="P30" duration="90" parking="true"/>
    </trip>
	<trip id="cv_67" depart="382" from="A0" to="E01" type="cv">
        <stop index="0" parkingArea="P01" duration="90" parking="true"/>
    </trip>
	<trip id="cv_68" depart="386" from="A1" to="E12" type="cv">
        <stop index="0" parkingArea="P12" duration="90" parking="true"/>
    </trip>
	<trip id="cv_69" depart="390" from="A2" to="E23" type="cv">
        <stop index="0" parkingArea="P23" duration="90" parking="true"/>
    </trip>
	<trip id="cv_70" depart="394" from="A1" to="E12" type="cv">
        <stop index="0" parkingArea="P12" duration="90" parking="true"/>
    </trip>
	<trip id="cv_71" depart="402" from="A0" to="E01" type="cv">
        <stop index="0" parkingArea="P01" duration="90" parking="true"/>
    </trip>
	<trip id="cv_72" depart="403" from="A1" to="E12" type="cv">
        <stop index="0" parkingArea="P12" duration="90" parking="true"/>
    </trip>
	<trip id="cv_73" depart="412" from="A3" to="E30" type="cv">
        <stop index="0" parkingArea="P30" duration="90" parking="true"/>
    </trip>
	<trip id="cv_74" depart="423" from="A1" to="E12" type="cv">
        <stop index="0" parkingArea="P12" duration="90" parking="true"/>
    </trip>
	<trip id="ncv_75" depart="428" from="A0" to="E01" type="ncv">
        <stop index="0" parkingArea="P01" duration="180" parking="true"/>
    </trip>
	<trip id="cv_76" depart="429" from="A0" to="E01" type="cv">
        <stop index="0" parkingArea="P01" duration="90" parking="true"/>
    </trip>
	<trip id="cv_77" depart="430" from="A1" to="E12" type="cv">
        <stop index="0" parkingArea="P12" duration="90" parking="true"/>
    </trip>
	<trip id="cv_78" depart="433" from="A2" to="E23" type="cv">
        <stop index="0" parkingArea="P23" duration="90" parking="true"/>
    </trip>
	<trip id="ncv_79" depart="434" from="A3" to="E30" type="ncv">
        <stop index="0" parkingArea="P30" duration="180" parking="true"/>
    </trip>
	<trip id="ncv_80" depart="437" from="A0" to="E01" type="ncv">
        <stop index="0" parkingArea="P01" duration="180" parking="true"/>
    </trip>
	<trip id="ncv_81" depart="441" from="A1" to="E12" type="ncv">
        <stop index="0" parkingArea="P12" duration="180" parking="true"/>
    </trip>
	<trip id="ncv_82" depart="442" from="A2" to="E23" type="ncv">
        <stop index="0" parkingArea="P23" duration="180" parking="true"/>
    </trip>
	<trip id="ncv_83" depart="446" from="A2" to="E23" type="ncv">
        <stop index="0" parkingArea="P23" duration="180" parking="true"/>
    </trip>
	<trip id="cv_84" depart="446" from="A3" to="E30" type="cv">
        <stop index="0" parkingArea="P30" duration="90" parking="true"/>
    </trip>
	<trip id="ncv_85" depart="456" from="A2" to="E23" type="ncv">
        <stop index="0" parkingArea="P23" duration="180" parking="true"/>
    </trip>
	<trip id="cv_86" depart="467" from="A0" to="E01" type="cv">
        <stop index="0" parkingArea="P01" duration="90" parking="true"/>
    </trip>
	<trip id="cv_87" depart="471" from="A3" to="E30" type="cv">
        <stop index="0" parkingArea="P30" duration="90" parking="true"/>
    </trip>
	<trip id="cv_88" depart="473" from="A0" to="E01" type="cv">
        <stop index="0" parkingArea="P01" duration="90" parking="true"/>
    </trip>
	<trip id="cv_89" depart="474" from="A1" to="E12" type="cv">
        <stop index="0" parkingArea="P12" duration="90" parking="true"/>
    </trip>
	<trip id="cv_90" depart="475" from="A0" to="E01" type="cv">
        <stop index="0" parkingArea="P01" duration="90" parking="true"/>
    </trip>
	<trip id="cv_91" depart="482" from="A0" to="E01" type="cv">
        <stop index="0" parkingArea="P01" duration="90" parking="true"/>
    </trip>
	<trip id="cv_92" depart="483" from="A2" to="E23" type="cv">
        <stop index="0" parkingArea="P23" duration="90" parking="true"/>
    </trip>
	<trip id="cv_93" depart="488" from="A0" to="E01" type="cv">
        <stop index="0" parkingArea="P01" duration="90" parking="true"/>
    </trip>
	<trip id="ncv_94" depart="500" from="A1" to="E12" type="ncv">
        <stop index="0" parkingArea="P12" duration="180" parking="true"/>
    </trip>
	<trip id="ncv_95" depart="501" from="A2" to="E23" type="ncv">
        <stop index="0" parkingArea="P23" duration="180" parking="true"/>
    </trip>
	<trip id="cv_96" depart="504" from="A0" to="E01" type="cv">
        <stop index="0" parkingArea="P01" duration="90" parking="true"/>
    </trip>
	<trip id="cv_97" depart="507" from="A2" to="E23" type="cv">
        <stop index="0" parkingArea="P23" duration="90" parking="true"/>
    </trip>
	<trip id="cv_98" depart="510" from="A2" to="E23" type="cv">
        <stop index="0" parkingArea="P23" duration="90" parking="true"/>
    </trip>
	<trip id="cv_99" depart="512" from="A0" to="E01" type="cv">
        <stop index="0" parkingArea="P01" duration="90" parking="true"/>
    </trip>
	<trip id="ncv_100" depart="512" from="A0" to="E01" type="ncv">
        <stop index="0" parkingArea="P01" duration="180" parking="true"/>
    </trip>
	<trip id="cv_101" depart="513" from="A1" to="E12" type="cv">
        <stop index="0" parkingArea="P12" duration="90" parking="true"/>
    </trip>
	<trip id="cv_102" depart="515" from="A1" to="E12" type="cv">
        <stop index="0" parkingArea="P12" duration="90" parking="true"/>
    </trip>
	<trip id="ncv_103" depart="515" from="A3" to="E30" type="ncv">
        <stop index="0" parkingArea="P30" duration="180" parking="true"/>
    </trip>
	<trip id="ncv_104" depart="528" from="A2" to="E23" type="ncv">
        <stop index="0" parkingArea="P23" duration="180" parking="true"/>
    </trip>
	<trip id="cv_105" depart="529" from="A3" to="E30" type="cv">
        <stop index="0" parkingArea="P30" duration="90" parking="true"/>
    </trip>
	<trip id="ncv_106" depart="531" from="A3" to="E30" type="ncv">
        <stop index="0" parkingArea="P30" duration="180" parking="true"/>
    </trip>
	<trip id="cv_107" depart="545" from="A2" to="E23" type="cv">
        <stop index="0" parkingArea="P23" duration="90" parking="true"/>
    </trip>
	<trip id="cv_108" depart="546" from="A0" to="E01" type="cv">
        <stop index="0" parkingArea="P01" duration="90" parking="true"/>
    </trip>
	<trip id="ncv_109" depart="554" from="A3" to="E30" type="ncv">
        <stop index="0" parkingArea="P30" duration="180" parking="true"/>
    </trip>
	<trip id="cv_110" depart="570" from="A2" to="E23" type="cv">
        <stop index="0" parkingArea="P23" duration="90" parking="true"/>
    </trip>
	<trip id="cv_111" depart="571" from="A2" to="E23" type="cv">
        <stop index="0" parkingArea="P23" duration="90" parking="true"/>
    </trip>
	<trip id="ncv_112" depart="571" from="A2" to="E23" type="ncv">
        <stop index="0" parkingArea="P23" duration="180" parking="true"/>
    </trip>
	<trip id="ncv_113" depart="572" from="A0" to="E01" type="ncv">
        <stop index="0" parkingArea="P01" duration="180" parking="true"/>
    </trip>
	<trip id="cv_114" depart="574" from="A2" to="E23" type="cv">
        <stop index="0" parkingArea="P23" duration="90" parking="true"/>
    </trip>
	<trip id="cv_115" depart="575" from="A1" to="E12" type="cv">
        <stop index="0" parkingArea="P12" duration="90" parking="true"/>
    </trip>
	<trip id="cv_116" depart="575" from="A2" to="E23" type="cv">
        <stop index="0" parkingArea="P23" duration="90" parking="true"/>
    </trip>
	<trip id="ncv_117" depart="579" from="A0" to="E01" type="ncv">
        <stop index="0" parkingArea="P01" duration="180" parking="true"/>
    </trip>
	<trip id="cv_118" depart="580" from="A1" to="E12" type="cv">
        <stop index="0" parkingArea="P12" duration="90" parking="true"/>
    </trip>
	<trip id="cv_119" depart="587" from="A2" to="E23" type="cv">
        <stop index="0" parkingArea="P23" duration="90" parking="true"/>
    </trip>
	<trip id="ncv_120" depart="587" from="A2" to="E23" type="ncv">
        <stop index="0" parkingArea="P23" duration="180" parking="true"/>
    </trip>
	<trip id="cv_121" depart="590" from="A1" to="E12" type="cv">
        <stop index="0" parkingArea="P12" duration="90" parking="true"/>
    </trip>
	<trip id="cv_122" depart="607" from="A1" to="E12" type="cv">
        <stop index="0" parkingArea="P12" duration="90" parking="true"/>
    </trip>
	<trip id="cv_123" depart="609" from="A1" to="E12" type="cv">
        <stop index="0" parkingArea="P12" duration="90" parking="true"/>
    </trip>
	<trip id="cv_124" depart="609" from="A2" to="E23" type="cv">
        <stop index="0" parkingArea="P23" duration="90" parking="true"/>
    </trip>
	<trip id="ncv_125" depart="609" from="A3" to="E30" type="ncv">
        <stop index="0" parkingArea="P30" duration="180" parking="true"/>
    </trip>
	<trip id="cv_126" depart="611" from="A0" to="E01" type="cv">
        <stop index="0" parkingArea="P01" duration="90" parking="true"/>
    </trip>
	<trip id="ncv_127" depart="620" from="A3" to="E30" type="ncv">
        <stop index="0" parkingArea="P30" duration="180" parking="true"/>
    </trip>
	<trip id="cv_128" depart="621" from="A3" to="E30" type="cv">
        <stop index="0" parkingArea="P30" duration="90" parking="true"/>
    </trip>
	<trip id="cv_129" depart="631" from="A2" to="E23" type="cv">
        <stop index="0" parkingArea="P23" duration="90" parking="true"/>
    </trip>
	<trip id="cv_130" depart="633" from="A0" to="E01" type="cv">
        <stop index="0" parkingArea="P01" duration="90" parking="true"/>
    </trip>
	<trip id="ncv_131" depart="634" from="A1" to="E12" type="ncv">
        <stop index="0" parkingArea="P12" duration="180" parking="true"/>
    </trip>
	<trip id="cv_132" depart="634" from="A3" to="E30" type="cv">
        <stop index="0" parkingArea="P30" duration="90" parking="true"/>
    </trip>
	<trip id="cv_133" depart="642" from="A1" to="E12" type="cv">
        <stop index="0" parkingArea="P12" duration="90" parking="true"/>
    </trip>
	<trip id="ncv_134" depart="643" from="A3" to="E30" type="ncv">
        <stop index="0" parkingArea="P30" duration="180" parking="true"/>
    </trip>
	<trip id="cv_135" depart="646" from="A2" to="E23" type="cv">
        <stop index="0" parkingArea="P23" duration="90" parking="true"/>
    </trip>
	<trip id="cv_136" depart="652" from="A1" to="E12" type="cv">
        <stop index="0" parkingArea="P12" duration="90" parking="true"/>
    </trip>
	<trip id="cv_137" depart="667" from="A2" to="E23" type="cv">
        <stop index="0" parkingArea="P23" duration="90" parking="true"/>
    </trip>
	<trip id="cv_138" depart="670" from="A0" to="E01" type="cv">
        <stop index="0" parkingArea="P01" duration="90" parking="true"/>
    </trip>
	<trip id="cv_139" depart="672" from="A0" to="E01" type="cv">
        <stop index="0" parkingArea="P01" duration="90" parking="true"/>
    </trip>
	<trip id="ncv_140" depart="677" from="A3" to="E30" type="ncv">
        <stop index="0" parkingArea="P30" duration="180" parking="true"/>
    </trip>
	<trip id="cv_141" depart="683" from="A0" to="E01" type="cv">
        <stop index="0" parkingArea="P01" duration="90" parking="true"/>
    </trip>
	<trip id="ncv_142" depart="699" from="A0" to="E01" type="ncv">
        <stop index="0" parkingArea="P01" duration="180" parking="true"/>
    </trip>
	<trip id="ncv_143" depart="699" from="A2" to="E23" type="ncv">
        <stop index="0" parkingArea="P23" duration="180" parking="true"/>
    </trip>
	<trip id="cv_144" depart="701" from="A0" to="E01" type="cv">
        <stop index="0" parkingArea="P01" duration="90" parking="true"/>
    </trip>
	<trip id="cv_145" depart="707" from="A3" to="E30" type="cv">
        <stop index="0" parkingArea="P30" duration="90" parking="true"/>
    </trip>
	<trip id="cv_146" depart="707" from="A3" to="E30" type="cv">
        <stop index="0" parkingArea="P30" duration="90" parking="true"/>
    </trip>
	<trip id="cv_147" depart="709" from="A3" to="E30" type="cv">
        <stop index="0" parkingArea="P30" duration="90" parking="true"/>
    </trip>
	<trip id="cv_148" depart="712" from="A0" to="E01" type="cv">
        <stop index="0" parkingArea="P01" duration="90" parking="true"/>
    </trip>
	<trip id="cv_149" depart="712" from="A2" to="E23" type="cv">
        <stop index="0" parkingArea="P23" duration="90" parking="true"/>
    </trip>
	<trip id="cv_150" depart="718" from="A2" to="E23" type="cv">
        <stop index="0" parkingArea="P23" duration="90" parking="true"/>
    </trip>
	<trip id="ncv_151" depart="719" from="A2" to="E23" type="ncv">
        <stop index="0" parkingArea="P23" duration="180" parking="true"/>
    </trip>
	<trip id="ncv_152" depart="720" from="A3" to="E30" type="ncv">
        <stop index="0" parkingArea="P30" duration="180" parking="true"/>
    </trip>
	<trip id="ncv_153" depart="720" from="A3" to="E30" type="ncv">
        <stop index="0" parkingArea="P30" duration="180" parking="true"/>
    </trip>
	<trip id="cv_154" depart="728" from="A1" to="E12" type="cv">
        <stop index="0" parkingArea="P12" duration="90" parking="true"/>
    </trip>
	<trip id="cv_155" depart="732" from="A2" to="E23" type="cv">
        <stop index="0" parkingArea="P23" duration="90" parking="true"/>
    </trip>
	<trip id="cv_156" depart="737" from="A2" to="E23" type="cv">
        <stop index="0" parkingArea="P23" duration="90" parking="true"/>
    </trip>
	<trip id="cv_157" depart="738" from="A3" to="E30" type="cv">
        <stop index="0" parkingArea="P30" duration="90" parking="true"/>
    </trip>
	<trip id="ncv_158" depart="745" from="A1" to="E12" type="ncv">
        <stop index="0" parkingArea="P12" duration="180" parking="true"/>
    </trip>
	<trip id="cv_159" depart="748" from="A1" to="E12" type="cv">
        <stop index="0" parkingArea="P12" duration="90" parking="true"/>
    </trip>
	<trip id="cv_160" depart="755" from="A1" to="E12" type="cv">
        <stop index="0" parkingArea="P12" duration="90" parking="true"/>
    </trip>
	<trip id="cv_161" depart="758" from="A3" to="E30" type="cv">
        <stop index="0" parkingArea="P30" duration="90" parking="true"/>
    </trip>
	<trip id="cv_162" depart="763" from="A1" to="E12" type="cv">
        <stop index="0" parkingArea="P12" duration="90" parking="true"/>
    </trip>
	<trip id="cv_163" depart="770" from="A3" to="E30" type="cv">
        <stop index="0" parkingArea="P30" duration="90" parking="true"/>
    </trip>
	<trip id="cv_164" depart="771" from="A2" to="E23" type="cv">
        <stop index="0" parkingArea="P23" duration="90" parking="true"/>
    </trip>
	<trip id="ncv_165" depart="778" from="A1" to="E12" type="ncv">
        <stop index="0" parkingArea="P12" duration="180" parking="true"/>
    </trip>
	<trip id="cv_166" depart="782" from="A2" to="E23" type="cv">
        <stop index="0" parkingArea="P23" duration="90" parking="true"/>
    </trip>
	<trip id="ncv_167" depart="782" from="A2" to="E23" type="ncv">
        <stop index="0" parkingArea="P23" duration="180" parking="true"/>
    </trip>
	<trip id="cv_168" depart="793" from="A1" to="E12" type="cv">
        <stop index="0" parkingArea="P12" duration="90" parking="true"/>
    </trip>
	<trip id="ncv_169" depart="798" from="A0" to="E01" type="ncv">
        <stop index="0" parkingArea="P01" duration="180" parking="true"/>
    </trip>
	<trip id="cv_170" depart="816" from="A1" to="E12" type="cv">
        <stop index="0" parkingArea="P12" duration="90" parking="true"/>
    </trip>
	<trip id="cv_171" depart="830" from="A2" to="E23" type="cv">
        <stop index="0" parkingArea="P23" duration="90" parking="true"/>
    </trip>
	<trip id="cv_172" depart="835" from="A2" to="E23" type="cv">
        <stop index="0" parkingArea="P23" duration="90" parking="true"/>
    </trip>
	<trip id="cv_173" depart="838" from="A1" to="E12" type="cv">
        <stop index="0" parkingArea="P12" duration="90" parking="true"/>
    </trip>
	<trip id="cv_174" depart="845" from="A3" to="E30" type="cv">
        <stop index="0" parkingArea="P30" duration="90" parking="true"/>
    </trip>
	<trip id="cv_175" depart="846" from="A2" to="E23" type="cv">
        <stop index="0" parkingArea="P23" duration="90" parking="true"/>
    </trip>
	<trip id="cv_176" depart="853" from="A0" to="E01" type="cv">
        <stop index="0" parkingArea="P01" duration="90" parking="true"/>
    </trip>
	<trip id="cv_177" depart="857" from="A1" to="E12" type="cv">
        <stop index="0" parkingArea="P12" duration="90" parking="true"/>
    </trip>
	<trip id="cv_178" depart="864" from="A0" to="E01" type="cv">
        <stop index="0" parkingArea="P01" duration="90" parking="true"/>
    </trip>
	<trip id="ncv_179" depart="870" from="A1" to="E12" type="ncv">
        <stop index="0" parkingArea="P12" duration="180" parking="true"/>
    </trip>
	<trip id="cv_180" depart="872" from="A1" to="E12" type="cv">
        <stop index="0" parkingArea="P12" duration="90" parking="true"/>
    </trip>
	<trip id="cv_181" depart="875" from="A0" to="E01" type="cv">
        <stop index="0" parkingArea="P01" duration="90" parking="true"/>
    </trip>
	<trip id="ncv_182" depart="879" from="A0" to="E01" type="ncv">
        <stop index="0" parkingArea="P01" duration="180" parking="true"/>
    </trip>
	<trip id="ncv_183" depart="880" from="A1" to="E12" type="ncv">
        <stop index="0" parkingArea="P12" duration="180" parking="true"/>
    </trip>
	<trip id="cv_184" depart="882" from="A0" to="E01" type="cv">
        <stop index="0" parkingArea="P01" duration="90" parking="true"/>
    </trip>
	<trip id="ncv_185" depart="886" from="A2" to="E23" type="ncv">
        <stop index="0" parkingArea="P23" duration="180" parking="true"/>
    </trip>
	<trip id="cv_186" depart="887" from="A1" to="E12" type="cv">
        <stop index="0" parkingArea="P12" duration="90" parking="true"/>
    </trip>
	<trip id="cv_187" depart="897" from="A1" to="E12" type="cv">
        <stop index="0" parkingArea="P12" duration="90" parking="true"/>
    </trip>
	<trip id="ncv_188" depart="898" from="A3" to="E30" type="ncv">
        <stop index="0" parkingArea="P30" duration="180" parking="true"/>
    </trip>
	<trip id="ncv_189" depart="910" from="A2" to="E23" type="ncv">
        <stop index="0" parkingArea="P23" duration="180" parking="true"/>
    </trip>
	<trip id="ncv_190" depart="911" from="A2" to="E23" type="ncv">
        <stop index="0" parkingArea="P23" duration="180" parking="true"/>
    </trip>
	<trip id="cv_191" depart="913" from="A2" to="E23" type="cv">
        <stop index="0" parkingArea="P23" duration="90" parking="true"/>
    </trip>
	<trip id="cv_192" depart="916" from="A1" to="E12" type="cv">
        <stop index="0" parkingArea="P12" duration="90" parking="true"/>
    </trip>
	<trip id="ncv_193" depart="926" from="A2" to="E23" type="ncv">
        <stop index="0" parkingArea="P23" duration="180" parking="true"/>
    </trip>
	<trip id="cv_194" depart="927" from="A3" to="E30" type="cv">
        <stop index="0" parkingArea="P30" duration="90" parking="true"/>
    </trip>
	<trip id="cv_195" depart="932" from="A0" to="E01" type="cv">
        <stop index="0" parkingArea="P01" duration="90" parking="true"/>
    </trip>
	<trip id="cv_196" depart="933" from="A1" to="E12" type="cv">
        <stop index="0" parkingArea="P12" duration="90" parking="true"/>
    </trip>
	<trip id="cv_197" depart="937" from="A0" to="E01" type="cv">
        <stop index="0" parkingArea="P01" duration="90" parking="true"/>