<?xml version="1.0" encoding="UTF-8"?>

<!-- generated on Sat Jul 24 11:05:08 2021 by Eclipse SUMO netedit Version 1.8.0
<configuration xmlns:xsi="http://www.w3.org/2001/XMLSchema-instance" xsi:noNamespaceSchemaLocation="http://sumo.dlr.de/xsd/netconvertConfiguration.xsd">

    <input>
        <sumo-net-file value="/Users/shuyiyin/Dropbox/UW/proposal/NSF%20CIS%20&amp;%20CPS/simulation/curbside/ring/ring.net.xml"/>
    </input>

    <output>
        <output-file value="/Users/shuyiyin/Dropbox/UW/proposal/NSF%20CIS%20&amp;%20CPS/simulation/curbside/ring/ring.net.xml"/>
    </output>

    <processing>
        <geometry.min-radius.fix.railways value="false"/>
        <geometry.max-grade.fix value="false"/>
        <offset.disable-normalization value="true"/>
        <lefthand value="false"/>
    </processing>

    <junctions>
        <no-turnarounds value="true"/>
        <junctions.corner-detail value="5"/>
        <junctions.limit-turn-speed value="5.5"/>
        <rectangular-lane-cut value="false"/>
    </junctions>

    <pedestrian>
        <walkingareas value="false"/>
    </pedestrian>

    <report>
        <aggregate-warnings value="5"/>
    </report>

</configuration>
-->

<net version="1.6" junctionCornerDetail="5" limitTurnSpeed="5.50" xmlns:xsi="http://www.w3.org/2001/XMLSchema-instance" xsi:noNamespaceSchemaLocation="http://sumo.dlr.de/xsd/net_file.xsd">

    <location netOffset="0.00,0.00" convBoundary="-20.00,-20.00,120.00,120.00" origBoundary="-10000000000.00,-10000000000.00,10000000000.00,10000000000.00" projParameter="!"/>

    <edge id=":J0_0" function="internal">
        <lane id=":J0_0_0" index="0" speed="6.51" length="9.03" shape="7.20,1.60 4.75,1.95 3.00,3.00 1.95,4.75 1.60,7.20"/>
    </edge>
    <edge id=":J0_1" function="internal">
        <lane id=":J0_1_0" index="0" speed="30.00" length="11.20" shape="1.60,-4.00 1.60,7.20"/>
    </edge>
    <edge id=":J1_0" function="internal">
        <lane id=":J1_0_0" index="0" speed="6.51" length="9.03" shape="1.60,92.80 1.95,95.25 3.00,97.00 4.75,98.05 7.20,98.40"/>
    </edge>
    <edge id=":J1_1" function="internal">
        <lane id=":J1_1_0" index="0" speed="30.00" length="11.20" shape="-4.00,98.40 7.20,98.40"/>
    </edge>
    <edge id=":J2_0" function="internal">
        <lane id=":J2_0_0" index="0" speed="30.00" length="11.20" shape="98.40,104.00 98.40,92.80"/>
    </edge>
    <edge id=":J2_1" function="internal">
        <lane id=":J2_1_0" index="0" speed="6.51" length="9.03" shape="92.80,98.40 95.25,98.05 97.00,97.00 98.05,95.25 98.40,92.80"/>
    </edge>
    <edge id=":J3_0" function="internal">
        <lane id=":J3_0_0" index="0" speed="6.51" length="9.03" shape="98.40,7.20 98.05,4.75 97.00,3.00 95.25,1.95 92.80,1.60"/>
    </edge>
    <edge id=":J3_1" function="internal">
        <lane id=":J3_1_0" index="0" speed="30.00" length="11.20" shape="104.00,1.60 92.80,1.60"/>
    </edge>

    <edge id="A0" from="S0" to="J0" priority="-1">
        <lane id="A0_0" index="0" speed="30.00" length="16.00" shape="1.60,-20.00 1.60,-4.00"/>
    </edge>
    <edge id="A1" from="S1" to="J1" priority="-1">
        <lane id="A1_0" index="0" speed="30.00" length="16.00" shape="-20.00,98.40 -4.00,98.40"/>
    </edge>
    <edge id="A2" from="S2" to="J2" priority="-1">
        <lane id="A2_0" index="0" speed="30.00" length="16.00" shape="98.40,120.00 98.40,104.00"/>
    </edge>
    <edge id="A3" from="S3" to="J3" priority="-1">
        <lane id="A3_0" index="0" speed="30.00" length="16.00" shape="120.00,1.60 104.00,1.60"/>
    </edge>
    <edge id="E01" from="J0" to="J1" priority="-1">
        <lane id="E01_0" index="0" speed="30.00" length="85.60" shape="1.60,7.20 1.60,92.80"/>
    </edge>
    <edge id="E12" from="J1" to="J2" priority="-1">
        <lane id="E12_0" index="0" speed="30.00" length="85.60" shape="7.20,98.40 92.80,98.40"/>
    </edge>
    <edge id="E23" from="J2" to="J3" priority="-1">
        <lane id="E23_0" index="0" speed="30.00" length="85.60" shape="98.40,92.80 98.40,7.20"/>
    </edge>
    <edge id="E30" from="J3" to="J0" priority="-1">
        <lane id="E30_0" index="0" speed="30.00" length="85.60" shape="92.80,1.60 7.20,1.60"/>
    </edge>

    <junction id="J0" type="priority" x="0.00" y="0.00" incLanes="E30_0 A0_0" intLanes=":J0_0_0 :J0_1_0" shape="0.00,7.20 3.20,7.20 3.64,4.98 4.20,4.20 4.98,3.64 5.98,3.31 7.20,3.20 7.20,0.00 4.98,-0.44 4.20,-1.00 3.64,-1.78 3.31,-2.78 3.20,-4.00 0.00,-4.00">
        <request index="0" response="00" foes="10" cont="0"/>
        <request index="1" response="01" foes="01" cont="0"/>
    </junction>
    <junction id="J1" type="priority" x="0.00" y="100.00" incLanes="E01_0 A1_0" intLanes=":J1_0_0 :J1_1_0" shape="7.20,100.00 7.20,96.80 4.98,96.36 4.20,95.80 3.64,95.02 3.31,94.02 3.20,92.80 0.00,92.80 -0.44,95.02 -1.00,95.80 -1.78,96.36 -2.78,96.69 -4.00,96.80 -4.00,100.00">
        <request index="0" response="00" foes="10" cont="0"/>
        <request index="1" response="01" foes="01" cont="0"/>
    </junction>
    <junction id="J2" type="priority" x="100.00" y="100.00" incLanes="A2_0 E12_0" intLanes=":J2_0_0 :J2_1_0" shape="96.80,104.00 100.00,104.00 100.00,92.80 96.80,92.80 96.36,95.02 95.80,95.80 95.02,96.36 94.02,96.69 92.80,96.80 92.80,100.00 95.02,100.44 95.80,101.00 96.36,101.78 96.69,102.78">
        <request index="0" response="10" foes="10" cont="0"/>
        <request index="1" response="00" foes="01" cont="0"/>
    </junction>
    <junction id="J3" type="priority" x="100.00" y="0.00" incLanes="E23_0 A3_0" intLanes=":J3_0_0 :J3_1_0" shape="96.80,7.20 100.00,7.20 100.44,4.98 101.00,4.20 101.78,3.64 102.78,3.31 104.00,3.20 104.00,0.00 92.80,0.00 92.80,3.20 95.02,3.64 95.80,4.20 96.36,4.98 96.69,5.98">
        <request index="0" response="00" foes="10" cont="0"/>
        <request index="1" response="01" foes="01" cont="0"/>
    </junction>
    <junction id="S0" type="dead_end" x="0.00" y="-20.00" incLanes="" intLanes="" shape="0.00,-20.00 3.20,-20.00"/>
    <junction id="S1" type="dead_end" x="-20.00" y="100.00" incLanes="" intLanes="" shape="-20.00,100.00 -20.00,96.80"/>
    <junction id="S2" type="dead_end" x="100.00" y="120.00" incLanes="" intLanes="" shape="100.00,120.00 96.80,120.00"/>
    <junction id="S3" type="dead_end" x="120.00" y="0.00" incLanes="" intLanes="" shape="120.00,0.00 120.00,3.20"/>

    <connection from="A0" to="E01" fromLane="0" toLane="0" via=":J0_1_0" dir="s" state="m"/>
    <connection from="A1" to="E12" fromLane="0" toLane="0" via=":J1_1_0" dir="s" state="m"/>
    <connection from="A2" to="E23" fromLane="0" toLane="0" via=":J2_0_0" dir="s" state="m"/>
    <connection from="A3" to="E30" fromLane="0" toLane="0" via=":J3_1_0" dir="s" state="m"/>
    <connection from="E01" to="E12" fromLane="0" toLane="0" via=":J1_0_0" dir="r" state="M"/>
    <connection from="E12" to="E23" fromLane="0" toLane="0" via=":J2_1_0" dir="r" state="M"/>
    <connection from="E23" to="E30" fromLane="0" toLane="0" via=":J3_0_0" dir="r" state="M"/>
    <connection from="E30" to="E01" fromLane="0" toLane="0" via=":J0_0_0" dir="r" state="M"/>

    <connection from=":J0_0" to="E01" fromLane="0" toLane="0" dir="r" state="M"/>
    <connection from=":J0_1" to="E01" fromLane="0" toLane="0" dir="s" state="M"/>
    <connection from=":J1_0" to="E12" fromLane="0" toLane="0" dir="r" state="M"/>
    <connection from=":J1_1" to="E12" fromLane="0" toLane="0" dir="s" state="M"/>
    <connection from=":J2_0" to="E23" fromLane="0" toLane="0" dir="s" state="M"/>
    <connection from=":J2_1" to="E23" fromLane="0" toLane="0" dir="r" state="M"/>
    <connection from=":J3_0" to="E30" fromLane="0" toLane="0" dir="r" state="M"/>
    <connection from=":J3_1" to="E30" fromLane="0" toLane="0" dir="s" state="M"/>

</net>
