<?xml version="1.0" encoding="UTF-8"?>
              <routes xmlns:xsi="http://www.w3.org/2001/XMLSchema-instance" xsi:noNamespaceSchemaLocation="http://sumo.dlr.de/xsd/routes_file.xsd">
              
	<vType id="ncv" vClass="passenger" guiShape="passenger/sedan" color="255,183,59"></vType>

    <vType id="f" vClass="passenger" guiShape="passenger/hatchback" color="192,192,192"></vType>

    <vType id="cv" vClass="passenger" guiShape="evehicle" color="245,39,224"></vType>
          
	<flow id="back_0" begin="0" end="3700" number="300" from="A0" to="E30" type="f"/>
	<flow id="back_1" begin="0" end="3700" number="300" from="A1" to="E01" type="f"/>
	<flow id="back_2" begin="0" end="3700" number="300" from="A2" to="E12" type="f"/>
	<flow id="back_3" begin="0" end="3700" number="300" from="A3" to="E23" type="f"/>
	<trip id="cv_0" depart="100" from="A1" to="E12" type="cv">
        <stop index="0" parkingArea="P12" duration="60" parking="true"/>
    </trip>
	<trip id="cv_1" depart="100" from="A2" to="E23" type="cv">
        <stop index="0" parkingArea="P23" duration="60" parking="true"/>
    </trip>
	<trip id="ncv_2" depart="101" from="A3" to="E30" type="ncv">
        <stop index="0" parkingArea="P30" duration="120" parking="true"/>
    </trip>
	<trip id="cv_3" depart="104" from="A0" to="E01" type="cv">
        <stop index="0" parkingArea="P01" duration="60" parking="true"/>
    </trip>
	<trip id="cv_4" depart="106" from="A1" to="E12" type="cv">
        <stop index="0" parkingArea="P12" duration="60" parking="true"/>
    </trip>
	<trip id="cv_5" depart="107" from="A3" to="E30" type="cv">
        <stop index="0" parkingArea="P30" duration="60" parking="true"/>
    </trip>
	<trip id="cv_6" depart="109" from="A1" to="E12" type="cv">
        <stop index="0" parkingArea="P12" duration="60" parking="true"/>
    </trip>
	<trip id="cv_7" depart="113" from="A1" to="E12" type="cv">
        <stop index="0" parkingArea="P12" duration="60" parking="true"/>
    </trip>
	<trip id="ncv_8" depart="113" from="A2" to="E23" type="ncv">
        <stop index="0" parkingArea="P23" duration="120" parking="true"/>
    </trip>
	<trip id="ncv_9" depart="115" from="A3" to="E30" type="ncv">
        <stop index="0" parkingArea="P30" duration="120" parking="true"/>
    </trip>
	<trip id="ncv_10" depart="126" from="A3" to="E30" type="ncv">
        <stop index="0" parkingArea="P30" duration="120" parking="true"/>
    </trip>
	<trip id="ncv_11" depart="129" from="A2" to="E23" type="ncv">
        <stop index="0" parkingArea="P23" duration="120" parking="true"/>
    </trip>
	<trip id="cv_12" depart="131" from="A3" to="E30" type="cv">
        <stop index="0" parkingArea="P30" duration="60" parking="true"/>
    </trip>
	<trip id="ncv_13" depart="132" from="A1" to="E12" type="ncv">
        <stop index="0" parkingArea="P12" duration="120" parking="true"/>
    </trip>
	<trip id="cv_14" depart="134" from="A3" to="E30" type="cv">
        <stop index="0" parkingArea="P30" duration="60" parking="true"/>
    </trip>
	<trip id="ncv_15" depart="136" from="A1" to="E12" type="ncv">
        <stop index="0" parkingArea="P12" duration="120" parking="true"/>
    </trip>
	<trip id="cv_16" depart="139" from="A2" to="E23" type="cv">
        <stop index="0" parkingArea="P23" duration="60" parking="true"/>
    </trip>
	<trip id="ncv_17" depart="140" from="A2" to="E23" type="ncv">
        <stop index="0" parkingArea="P23" duration="120" parking="true"/>
    </trip>
	<trip id="ncv_18" depart="141" from="A3" to="E30" type="ncv">
        <stop index="0" parkingArea="P30" duration="120" parking="true"/>
    </trip>
	<trip id="ncv_19" depart="150" from="A0" to="E01" type="ncv">
        <stop index="0" parkingArea="P01" duration="120" parking="true"/>
    </trip>
	<trip id="ncv_20" depart="154" from="A0" to="E01" type="ncv">
        <stop index="0" parkingArea="P01" duration="120" parking="true"/>
    </trip>
	<trip id="cv_21" depart="157" from="A0" to="E01" type="cv">
        <stop index="0" parkingArea="P01" duration="60" parking="true"/>
    </trip>
	<trip id="cv_22" depart="158" from="A1" to="E12" type="cv">
        <stop index="0" parkingArea="P12" duration="60" parking="true"/>
    </trip>
	<trip id="cv_23" depart="160" from="A1" to="E12" type="cv">
        <stop index="0" parkingArea="P12" duration="60" parking="true"/>
    </trip>
	<trip id="cv_24" depart="162" from="A2" to="E23" type="cv">
        <stop index="0" parkingArea="P23" duration="60" parking="true"/>
    </trip>
	<trip id="ncv_25" depart="166" from="A0" to="E01" type="ncv">
        <stop index="0" parkingArea="P01" duration="120" parking="true"/>
    </trip>
	<trip id="cv_26" depart="176" from="A1" to="E12" type="cv">
        <stop index="0" parkingArea="P12" duration="60" parking="true"/>
    </trip>
	<trip id="ncv_27" depart="182" from="A2" to="E23" type="ncv">
        <stop index="0" parkingArea="P23" duration="120" parking="true"/>
    </trip>
	<trip id="cv_28" depart="183" from="A2" to="E23" type="cv">
        <stop index="0" parkingArea="P23" duration="60" parking="true"/>
    </trip>
	<trip id="cv_29" depart="184" from="A3" to="E30" type="cv">
        <stop index="0" parkingArea="P30" duration="60" parking="true"/>
    </trip>
	<trip id="ncv_30" depart="188" from="A0" to="E01" type="ncv">
        <stop index="0" parkingArea="P01" duration="120" parking="true"/>
    </trip>
	<trip id="cv_31" depart="188" from="A3" to="E30" type="cv">
        <stop index="0" parkingArea="P30" duration="60" parking="true"/>
    </trip>
	<trip id="cv_32" depart="189" from="A1" to="E12" type="cv">
        <stop index="0" parkingArea="P12" duration="60" parking="true"/>
    </trip>
	<trip id="ncv_33" depart="193" from="A0" to="E01" type="ncv">
        <stop index="0" parkingArea="P01" duration="120" parking="true"/>
    </trip>
	<trip id="ncv_34" depart="200" from="A2" to="E23" type="ncv">
        <stop index="0" parkingArea="P23" duration="120" parking="true"/>
    </trip>
	<trip id="ncv_35" depart="204" from="A3" to="E30" type="ncv">
        <stop index="0" parkingArea="P30" duration="120" parking="true"/>
    </trip>
	<trip id="ncv_36" depart="209" from="A0" to="E01" type="ncv">
        <stop index="0" parkingArea="P01" duration="120" parking="true"/>
    </trip>
	<trip id="ncv_37" depart="209" from="A2" to="E23" type="ncv">
        <stop index="0" parkingArea="P23" duration="120" parking="true"/>
    </trip>
	<trip id="ncv_38" depart="213" from="A1" to="E12" type="ncv">
        <stop index="0" parkingArea="P12" duration="120" parking="true"/>
    </trip>
	<trip id="cv_39" depart="214" from="A3" to="E30" type="cv">
        <stop index="0" parkingArea="P30" duration="60" parking="true"/>
    </trip>
	<trip id="ncv_40" depart="220" from="A2" to="E23" type="ncv">
        <stop index="0" parkingArea="P23" duration="120" parking="true"/>
    </trip>
	<trip id="ncv_41" depart="223" from="A2" to="E23" type="ncv">
        <stop index="0" parkingArea="P23" duration="120" parking="true"/>
    </trip>
	<trip id="ncv_42" depart="225" from="A2" to="E23" type="ncv">
        <stop index="0" parkingArea="P23" duration="120" parking="true"/>
    </trip>
	<trip id="cv_43" depart="229" from="A1" to="E12" type="cv">
        <stop index="0" parkingArea="P12" duration="60" parking="true"/>
    </trip>
	<trip id="ncv_44" depart="232" from="A2" to="E23" type="ncv">
        <stop index="0" parkingArea="P23" duration="120" parking="true"/>
    </trip>
	<trip id="cv_45" depart="235" from="A0" to="E01" type="cv">
        <stop index="0" parkingArea="P01" duration="60" parking="true"/>
    </trip>
	<trip id="cv_46" depart="237" from="A2" to="E23" type="cv">
        <stop index="0" parkingArea="P23" duration="60" parking="true"/>
    </trip>
	<trip id="ncv_47" depart="244" from="A2" to="E23" type="ncv">
        <stop index="0" parkingArea="P23" duration="120" parking="true"/>
    </trip>
	<trip id="cv_48" depart="245" from="A2" to="E23" type="cv">
        <stop index="0" parkingArea="P23" duration="60" parking="true"/>
    </trip>
	<trip id="ncv_49" depart="245" from="A3" to="E30" type="ncv">
        <stop index="0" parkingArea="P30" duration="120" parking="true"/>
    </trip>
	<trip id="ncv_50" depart="246" from="A1" to="E12" type="ncv">
        <stop index="0" parkingArea="P12" duration="120" parking="true"/>
    </trip>
	<trip id="cv_51" depart="247" from="A2" to="E23" type="cv">
        <stop index="0" parkingArea="P23" duration="60" parking="true"/>
    </trip>
	<trip id="ncv_52" depart="249" from="A0" to="E01" type="ncv">
        <stop index="0" parkingArea="P01" duration="120" parking="true"/>
    </trip>
	<trip id="ncv_53" depart="254" from="A1" to="E12" type="ncv">
        <stop index="0" parkingArea="P12" duration="120" parking="true"/>
    </trip>
	<trip id="ncv_54" depart="256" from="A2" to="E23" type="ncv">
        <stop index="0" parkingArea="P23" duration="120" parking="true"/>
    </trip>
	<trip id="cv_55" depart="258" from="A0" to="E01" type="cv">
        <stop index="0" parkingArea="P01" duration="60" parking="true"/>
    </trip>
	<trip id="cv_56" depart="259" from="A1" to="E12" type="cv">
        <stop index="0" parkingArea="P12" duration="60" parking="true"/>
    </trip>
	<trip id="ncv_57" depart="261" from="A0" to="E01" type="ncv">
        <stop index="0" parkingArea="P01" duration="120" parking="true"/>
    </trip>
	<trip id="cv_58" depart="261" from="A2" to="E23" type="cv">
        <stop index="0" parkingArea="P23" duration="60" parking="true"/>
    </trip>
	<trip id="ncv_59" depart="263" from="A2" to="E23" type="ncv">
        <stop index="0" parkingArea="P23" duration="120" parking="true"/>
    </trip>
	<trip id="cv_60" depart="265" from="A0" to="E01" type="cv">
        <stop index="0" parkingArea="P01" duration="60" parking="true"/>
    </trip>
	<trip id="cv_61" depart="266" from="A1" to="E12" type="cv">
        <stop index="0" parkingArea="P12" duration="60" parking="true"/>
    </trip>
	<trip id="cv_62" depart="266" from="A2" to="E23" type="cv">
        <stop index="0" parkingArea="P23" duration="60" parking="true"/>
    </trip>
	<trip id="ncv_63" depart="266" from="A3" to="E30" type="ncv">
        <stop index="0" parkingArea="P30" duration="120" parking="true"/>
    </trip>
	<trip id="ncv_64" depart="268" from="A1" to="E12" type="ncv">
        <stop index="0" parkingArea="P12" duration="120" parking="true"/>
    </trip>
	<trip id="ncv_65" depart="268" from="A3" to="E30" type="ncv">
        <stop index="0" parkingArea="P30" duration="120" parking="true"/>
    </trip>
	<trip id="cv_66" depart="272" from="A1" to="E12" type="cv">
        <stop index="0" parkingArea="P12" duration="60" parking="true"/>
    </trip>
	<trip id="ncv_67" depart="272" from="A1" to="E12" type="ncv">
        <stop index="0" parkingArea="P12" duration="120" parking="true"/>
    </trip>
	<trip id="cv_68" depart="273" from="A1" to="E12" type="cv">
        <stop index="0" parkingArea="P12" duration="60" parking="true"/>
    </trip>
	<trip id="ncv_69" depart="282" from="A2" to="E23" type="ncv">
        <stop index="0" parkingArea="P23" duration="120" parking="true"/>
    </trip>
	<trip id="ncv_70" depart="285" from="A0" to="E01" type="ncv">
        <stop index="0" parkingArea="P01" duration="120" parking="true"/>
    </trip>
	<trip id="ncv_71" depart="287" from="A0" to="E01" type="ncv">
        <stop index="0" parkingArea="P01" duration="120" parking="true"/>
    </trip>
	<trip id="cv_72" depart="289" from="A3" to="E30" type="cv">
        <stop index="0" parkingArea="P30" duration="60" parking="true"/>
    </trip>
	<trip id="cv_73" depart="291" from="A1" to="E12" type="cv">
        <stop index="0" parkingArea="P12" duration="60" parking="true"/>
    </trip>
	<trip id="ncv_74" depart="292" from="A2" to="E23" type="ncv">
        <stop index="0" parkingArea="P23" duration="120" parking="true"/>
    </trip>
	<trip id="ncv_75" depart="297" from="A1" to="E12" type="ncv">
        <stop index="0" parkingArea="P12" duration="120" parking="true"/>
    </trip>
	<trip id="cv_76" depart="304" from="A1" to="E12" type="cv">
        <stop index="0" parkingArea="P12" duration="60" parking="true"/>
    </trip>
	<trip id="ncv_77" depart="314" from="A3" to="E30" type="ncv">
        <stop index="0" parkingArea="P30" duration="120" parking="true"/>
    </trip>
	<trip id="cv_78" depart="327" from="A2" to="E23" type="cv">
        <stop index="0" parkingArea="P23" duration="60" parking="true"/>
    </trip>
	<trip id="cv_79" depart="336" from="A3" to="E30" type="cv">
        <stop index="0" parkingArea="P30" duration="60" parking="true"/>
    </trip>
	<trip id="ncv_80" depart="337" from="A0" to="E01" type="ncv">
        <stop index="0" parkingArea="P01" duration="120" parking="true"/>
    </trip>
	<trip id="ncv_81" depart="346" from="A2" to="E23" type="ncv">
        <stop index="0" parkingArea="P23" duration="120" parking="true"/>
    </trip>
	<trip id="ncv_82" depart="346" from="A3" to="E30" type="ncv">
        <stop index="0" parkingArea="P30" duration="120" parking="true"/>
    </trip>
	<trip id="ncv_83" depart="350" from="A0" to="E01" type="ncv">
        <stop index="0" parkingArea="P01" duration="120" parking="true"/>
    </trip>
	<trip id="ncv_84" depart="350" from="A0" to="E01" type="ncv">
        <stop index="0" parkingArea="P01" duration="120" parking="true"/>
    </trip>
	<trip id="ncv_85" depart="350" from="A1" to="E12" type="ncv">
        <stop index="0" parkingArea="P12" duration="120" parking="true"/>
    </trip>
	<trip id="ncv_86" depart="354" from="A0" to="E01" type="ncv">
        <stop index="0" parkingArea="P01" duration="120" parking="true"/>
    </trip>
	<trip id="cv_87" depart="355" from="A0" to="E01" type="cv">
        <stop index="0" parkingArea="P01" duration="60" parking="true"/>
    </trip>
	<trip id="cv_88" depart="355" from="A2" to="E23" type="cv">
        <stop index="0" parkingArea="P23" duration="60" parking="true"/>
    </trip>
	<trip id="cv_89" depart="357" from="A0" to="E01" type="cv">
        <stop index="0" parkingArea="P01" duration="60" parking="true"/>
    </trip>
	<trip id="ncv_90" depart="357" from="A2" to="E23" type="ncv">
        <stop index="0" parkingArea="P23" duration="120" parking="true"/>
    </trip>
	<trip id="cv_91" depart="361" from="A1" to="E12" type="cv">
        <stop index="0" parkingArea="P12" duration="60" parking="true"/>
    </trip>
	<trip id="ncv_92" depart="361" from="A1" to="E12" type="ncv">
        <stop index="0" parkingArea="P12" duration="120" parking="true"/>
    </trip>
	<trip id="cv_93" depart="368" from="A2" to="E23" type="cv">
        <stop index="0" parkingArea="P23" duration="60" parking="true"/>
    </trip>
	<trip id="ncv_94" depart="369" from="A1" to="E12" type="ncv">
        <stop index="0" parkingArea="P12" duration="120" parking="true"/>
    </trip>
	<trip id="cv_95" depart="371" from="A2" to="E23" type="cv">
        <stop index="0" parkingArea="P23" duration="60" parking="true"/>
    </trip>
	<trip id="cv_96" depart="371" from="A2" to="E23" type="cv">
        <stop index="0" parkingArea="P23" duration="60" parking="true"/>
    </trip>
	<trip id="ncv_97" depart="372" from="A3" to="E30" type="ncv">
        <stop index="0" parkingArea="P30" duration="120" parking="true"/>
    </trip>
	<trip id="ncv_98" depart="378" from="A3" to="E30" type="ncv">
        <stop index="0" parkingArea="P30" duration="120" parking="true"/>
    </trip>
	<trip id="cv_99" depart="382" from="A0" to="E01" type="cv">
        <stop index="0" parkingArea="P01" duration="60" parking="true"/>
    </trip>
	<trip id="ncv_100" depart="386" from="A0" to="E01" type="ncv">
        <stop index="0" parkingArea="P01" duration="120" parking="true"/>
    </trip>
	<trip id="ncv_101" depart="388" from="A2" to="E23" type="ncv">
        <stop index="0" parkingArea="P23" duration="120" parking="true"/>
    </trip>
	<trip id="ncv_102" depart="388" from="A2" to="E23" type="ncv">
        <stop index="0" parkingArea="P23" duration="120" parking="true"/>
    </trip>
	<trip id="ncv_103" depart="388" from="A3" to="E30" type="ncv">
        <stop index="0" parkingArea="P30" duration="120" parking="true"/>
    </trip>
	<trip id="ncv_104" depart="390" from="A1" to="E12" type="ncv">
        <stop index="0" parkingArea="P12" duration="120" parking="true"/>
    </trip>
	<trip id="ncv_105" depart="394" from="A0" to="E01" type="ncv">
        <stop index="0" parkingArea="P01" duration="120" parking="true"/>
    </trip>
	<trip id="cv_106" depart="399" from="A3" to="E30" type="cv">
        <stop index="0" parkingArea="P30" duration="60" parking="true"/>
    </trip>
	<trip id="cv_107" depart="402" from="A0" to="E01" type="cv">
        <stop index="0" parkingArea="P01" duration="60" parking="true"/>
    </trip>
	<trip id="ncv_108" depart="403" from="A0" to="E01" type="ncv">
        <stop index="0" parkingArea="P01" duration="120" parking="true"/>
    </trip>
	<trip id="ncv_109" depart="408" from="A2" to="E23" type="ncv">
        <stop index="0" parkingArea="P23" duration="120" parking="true"/>
    </trip>
	<trip id="cv_110" depart="412" from="A2" to="E23" type="cv">
        <stop index="0" parkingArea="P23" duration="60" parking="true"/>
    </trip>
	<trip id="cv_111" depart="419" from="A3" to="E30" type="cv">
        <stop index="0" parkingArea="P30" duration="60" parking="true"/>
    </trip>
	<trip id="ncv_112" depart="421" from="A2" to="E23" type="ncv">
        <stop index="0" parkingArea="P23" duration="120" parking="true"/>
    </trip>
	<trip id="ncv_113" depart="423" from="A0" to="E01" type="ncv">
        <stop index="0" parkingArea="P01" duration="120" parking="true"/>
    </trip>
	<trip id="cv_114" depart="428" from="A0" to="E01" type="cv">
        <stop index="0" parkingArea="P01" duration="60" parking="true"/>
    </trip>
	<trip id="cv_115" depart="429" from="A0" to="E01" type="cv">
        <stop index="0" parkingArea="P01" duration="60" parking="true"/>
    </trip>
	<trip id="cv_116" depart="430" from="A1" to="E12" type="cv">
        <stop index="0" parkingArea="P12" duration="60" parking="true"/>
    </trip>
	<trip id="cv_117" depart="430" from="A3" to="E30" type="cv">
        <stop index="0" parkingArea="P30" duration="60" parking="true"/>
    </trip>
	<trip id="cv_118" depart="433" from="A1" to="E12" type="cv">
        <stop index="0" parkingArea="P12" duration="60" parking="true"/>
    </trip>
	<trip id="ncv_119" depart="433" from="A3" to="E30" type="ncv">
        <stop index="0" parkingArea="P30" duration="120" parking="true"/>
    </trip>
	<trip id="cv_120" depart="434" from="A2" to="E23" type="cv">
        <stop index="0" parkingArea="P23" duration="60" parking="true"/>
    </trip>
	<trip id="ncv_121" depart="437" from="A0" to="E01" type="ncv">
        <stop index="0" parkingArea="P01" duration="120" parking="true"/>
    </trip>
	<trip id="cv_122" depart="441" from="A1" to="E12" type="cv">
        <stop index="0" parkingArea="P12" duration="60" parking="true"/>
    </trip>
	<trip id="ncv_123" depart="442" from="A1" to="E12" type="ncv">
        <stop index="0" parkingArea="P12" duration="120" parking="true"/>
    </trip>
	<trip id="ncv_124" depart="444" from="A2" to="E23" type="ncv">
        <stop index="0" parkingArea="P23" duration="120" parking="true"/>
    </trip>
	<trip id="ncv_125" depart="446" from="A1" to="E12" type="ncv">
        <stop index="0" parkingArea="P12" duration="120" parking="true"/>
    </trip>
	<trip id="cv_126" depart="446" from="A2" to="E23" type="cv">
        <stop index="0" parkingArea="P23" duration="60" parking="true"/>
    </trip>
	<trip id="cv_127" depart="446" from="A3" to="E30" type="cv">
        <stop index="0" parkingArea="P30" duration="60" parking="true"/>
    </trip>
	<trip id="ncv_128" depart="449" from="A3" to="E30" type="ncv">
        <stop index="0" parkingArea="P30" duration="120" parking="true"/>
    </trip>
	<trip id="cv_129" depart="454" from="A3" to="E30" type="cv">
        <stop index="0" parkingArea="P30" duration="60" parking="true"/>
    </trip>
	<trip id="ncv_130" depart="456" from="A1" to="E12" type="ncv">
        <stop index="0" parkingArea="P12" duration="120" parking="true"/>
    </trip>
	<trip id="cv_131" depart="467" from="A0" to="E01" type="cv">
        <stop index="0" parkingArea="P01" duration="60" parking="true"/>
    </trip>
	<trip id="cv_132" depart="471" from="A2" to="E23" type="cv">
        <stop index="0" parkingArea="P23" duration="60" parking="true"/>
    </trip>
	<trip id="cv_133" depart="472" from="A3" to="E30" type="cv">
        <stop index="0" parkingArea="P30" duration="60" parking="true"/>
    </trip>
	<trip id="cv_134" depart="473" from="A0" to="E01" type="cv">
        <stop index="0" parkingArea="P01" duration="60" parking="true"/>
    </trip>
	<trip id="ncv_135" depart="474" from="A0" to="E01" type="ncv">
        <stop index="0" parkingArea="P01" duration="120" parking="true"/>
    </trip>
	<trip id="cv_136" depart="475" from="A0" to="E01" type="cv">
        <stop index="0" parkingArea="P01" duration="60" parking="true"/>
    </trip>
	<trip id="cv_137" depart="479" from="A3" to="E30" type="cv">
        <stop index="0" parkingArea="P30" duration="60" parking="true"/>
    </trip>
	<trip id="cv_138" depart="482" from="A0" to="E01" type="cv">
        <stop index="0" parkingArea="P01" duration="60" parking="true"/>
    </trip>
	<trip id="ncv_139" depart="482" from="A2" to="E23" type="ncv">
        <stop index="0" parkingArea="P23" duration="120" parking="true"/>
    </trip>
	<trip id="ncv_140" depart="483" from="A1" to="E12" type="ncv">
        <stop index="0" parkingArea="P12" duration="120" parking="true"/>
    </trip>
	<trip id="cv_141" depart="488" from="A0" to="E01" type="cv">
        <stop index="0" parkingArea="P01" duration="60" parking="true"/>
    </trip>
	<trip id="cv_142" depart="500" from="A1" to="E12" type="cv">
        <stop index="0" parkingArea="P12" duration="60" parking="true"/>
    </trip>
	<trip id="ncv_143" depart="501" from="A1" to="E12" type="ncv">
        <stop index="0" parkingArea="P12" duration="120" parking="true"/>
    </trip>
	<trip id="cv_144" depart="504" from="A0" to="E01" type="cv">
        <stop index="0" parkingArea="P01" duration="60" parking="true"/>
    </trip>
	<trip id="ncv_145" depart="506" from="A2" to="E23" type="ncv">
        <stop index="0" parkingArea="P23" duration="120" parking="true"/>
    </trip>
	<trip id="ncv_146" depart="507" from="A1" to="E12" type="ncv">
        <stop index="0" parkingArea="P12" duration="120" parking="true"/>
    </trip>
	<trip id="cv_147" depart="510" from="A1" to="E12" type="cv">
        <stop index="0" parkingArea="P12" duration="60" parking="true"/>
    </trip>
	<trip id="cv_148" depart="512" from="A0" to="E01" type="cv">
        <stop index="0" parkingArea="P01" duration="60" parking="true"/>
    </trip>
	<trip id="ncv_149" depart="512" from="A0" to="E01" type="ncv">
        <stop index="0" parkingArea="P01" duration="120" parking="true"/>
    </trip>
	<trip id="ncv_150" depart="513" from="A0" to="E01" type="ncv">
        <stop index="0" parkingArea="P01" duration="120" parking="true"/>
    </trip>
	<trip id="ncv_151" depart="515" from="A0" to="E01" type="ncv">
        <stop index="0" parkingArea="P01" duration="120" parking="true"/>
    </trip>
	<trip id="ncv_152" depart="515" from="A2" to="E23" type="ncv">
        <stop index="0" parkingArea="P23" duration="120" parking="true"/>
    </trip>
	<trip id="ncv_153" depart="517" from="A3" to="E30" type="ncv">
        <stop index="0" parkingArea="P30" duration="120" parking="true"/>
    </trip>
	<trip id="cv_154" depart="520" from="A3" to="E30" type="cv">
        <stop index="0" parkingArea="P30" duration="60" parking="true"/>
    </trip>
	<trip id="ncv_155" depart="528" from="A1" to="E12" type="ncv">
        <stop index="0" parkingArea="P12" duration="120" parking="true"/>
    </trip>
	<trip id="cv_156" depart="529" from="A2" to="E23" type="cv">
        <stop index="0" parkingArea="P23" duration="60" parking="true"/>
    </trip>
	<trip id="ncv_157" depart="529" from="A2" to="E23" type="ncv">
        <stop index="0" parkingArea="P23" duration="120" parking="true"/>
    </trip>
	<trip id="ncv_158" depart="531" from="A2" to="E23" type="ncv">
        <stop index="0" parkingArea="P23" duration="120" parking="true"/>
    </trip>
	<trip id="ncv_159" depart="531" from="A3" to="E30" type="ncv">
        <stop index="0" parkingArea="P30" duration="120" parking="true"/>
    </trip>
	<trip id="ncv_160" depart="531" from="A3" to="E30" type="ncv">
        <stop index="0" parkingArea="P30" duration="120" parking="true"/>
    </trip>
	<trip id="cv_161" depart="544" from="A3" to="E30" type="cv">
        <stop index="0" parkingArea="P30" duration="60" parking="true"/>
    </trip>
	<trip id="ncv_162" depart="545" from="A1" to="E12" type="ncv">
        <stop index="0" parkingArea="P12" duration="120" parking="true"/>
    </trip>
	<trip id="cv_163" depart="546" from="A0" to="E01" type="cv">
        <stop index="0" parkingArea="P01" duration="60" parking="true"/>
    </trip>
	<trip id="ncv_164" depart="554" from="A2" to="E23" type="ncv">
        <stop index="0" parkingArea="P23" duration="120" parking="true"/>
    </trip>
	<trip id="cv_165" depart="559" from="A3" to="E30" type="cv">
        <stop index="0" parkingArea="P30" duration="60" parking="true"/>
    </trip>
	<trip id="cv_166" depart="560" from="A3" to="E30" type="cv">
        <stop index="0" parkingArea="P30" duration="60" parking="true"/>
    </trip>
	<trip id="ncv_167" depart="564" from="A2" to="E23" type="ncv">
        <stop index="0" parkingArea="P23" duration="120" parking="true"/>
    </trip>
	<trip id="cv_168" depart="568" from="A3" to="E30" type="cv">
        <stop index="0" parkingArea="P30" duration="60" parking="true"/>
    </trip>
	<trip id="ncv_169" depart="570" from="A1" to="E12" type="ncv">
        <stop index="0" parkingArea="P12" duration="120" parking="true"/>
    </trip>
	<trip id="cv_170" depart="571" from="A1" to="E12" type="cv">
        <stop index="0" parkingArea="P12" duration="60" parking="true"/>
    </trip>
	<trip id="ncv_171" depart="571" from="A1" to="E12" type="ncv">
        <stop index="0" parkingArea="P12" duration="120" parking="true"/>
    </trip>
	<trip id="ncv_172" depart="572" from="A0" to="E01" type="ncv">
        <stop index="0" parkingArea="P01" duration="120" parking="true"/>
    </trip>
	<trip id="cv_173" depart="574" from="A1" to="E12" type="cv">
        <stop index="0" parkingArea="P12" duration="60" parking="true"/>
    </trip>
	<trip id="ncv_174" depart="575" from="A0" to="E01" type="ncv">
        <stop index="0" parkingArea="P01" duration="120" parking="true"/>
    </trip>
	<trip id="ncv_175" depart="575" from="A1" to="E12" type="ncv">
        <stop index="0" parkingArea="P12" duration="120" parking="true"/>
    </trip>
	<trip id="ncv_176" depart="575" from="A3" to="E30" type="ncv">
        <stop index="0" parkingArea="P30" duration="120" parking="true"/>
    </trip>
	<trip id="ncv_177" depart="579" from="A0" to="E01" type="ncv">
        <stop index="0" parkingArea="P01" duration="120" parking="true"/>
    </trip>
	<trip id="ncv_178" depart="580" from="A0" to="E01" type="ncv">
        <stop index="0" parkingArea="P01" duration="120" parking="true"/>
    </trip>
	<trip id="ncv_179" depart="584" from="A3" to="E30" type="ncv">
        <stop index="0" parkingArea="P30" duration="120" parking="true"/>
    </trip>
	<trip id="cv_180" depart="587" from="A1" to="E12" type="cv">
        <stop index="0" parkingArea="P12" duration="60" parking="true"/>
    </trip>
	<trip id="ncv_181" depart="587" from="A1" to="E12" type="ncv">
        <stop index="0" parkingArea="P12" duration="120" parking="true"/>
    </trip>
	<trip id="ncv_182" depart="590" from="A0" to="E01" type="ncv">
        <stop index="0" parkingArea="P01" duration="120" parking="true"/>
    </trip>
	<trip id="ncv_183" depart="593" from="A3" to="E30" type="ncv">
        <stop index="0" parkingArea="P30" duration="120" parking="true"/>
    </trip>
	<trip id="cv_184" depart="594" from="A3" to="E30" type="cv">
        <stop index="0" parkingArea="P30" duration="60" parking="true"/>
    </trip>
	<trip id="ncv_185" depart="597" from="A2" to="E23" type="ncv">
        <stop index="0" parkingArea="P23" duration="120" parking="true"/>
    </trip>
	<trip id="ncv_186" depart="597" from="A2" to="E23" type="ncv">
        <stop index="0" parkingArea="P23" duration="120" parking="true"/>
    </trip>
	<trip id="ncv_187" depart="604" from="A2" to="E23" type="ncv">
        <stop index="0" parkingArea="P23" duration="120" parking="true"/>
    </trip>
	<trip id="ncv_188" depart="605" from="A3" to="E30" type="ncv">
        <stop index="0" parkingArea="P30" duration="120" parking="true"/>
    </trip>
	<trip id="ncv_189" depart="607" from="A0" to="E01" type="ncv">
        <stop index="0" parkingArea="P01" duration="120" parking="true"/>
    </trip>
	<trip id="ncv_190" depart="609" from="A0" to="E01" type="ncv">
        <stop index="0" parkingArea="P01" duration="120" parking="true"/>
    </trip>
	<trip id="ncv_191" depart="609" from="A1" to="E12" type="ncv">
        <stop index="0" parkingArea="P12" duration="120" parking="true"/>
    </trip>
	<trip id="ncv_192" depart="609" from="A2" to="E23" type="ncv">
        <stop index="0" parkingArea="P23" duration="120" parking="true"/>
    </trip>
	<trip id="cv_193" depart="611" from="A0" to="E01" type="cv">
        <stop index="0" parkingArea="P01" duration="60" parking="true"/>
    </trip>
	<trip id="cv_194" depart="612" from="A3" to="E30" type="cv">
        <stop index="0" parkingArea="P30" duration="60" parking="true"/>
    </trip>
	<trip id="ncv_195" depart="620" from="A2" to="E23" type="ncv">
        <stop index="0" parkingArea="P23" duration="120" parking="true"/>
    </trip>
	<trip id="cv_196" depart="621" from="A2" to="E23" type="cv">
        <stop index="0" parkingArea="P23" duration="60" parking="true"/>