<?xml version="1.0" encoding="UTF-8"?>
              <routes xmlns:xsi="http://www.w3.org/2001/XMLSchema-instance" xsi:noNamespaceSchemaLocation="http://sumo.dlr.de/xsd/routes_file.xsd">
              
	<vType id="ncv" vClass="passenger" guiShape="passenger/sedan" color="255,183,59"></vType>

    <vType id="f" vClass="passenger" guiShape="passenger/hatchback" color="192,192,192"></vType>

    <vType id="cv" vClass="passenger" guiShape="evehicle" color="245,39,224"></vType>
          
	<flow id="back" begin="0" end="3700" number="300" from="E01" to="E30" type="f"/>
	<trip id="cv_0" depart="100" from="A2" to="E23" type="cv">
        <stop index="0" parkingArea="P23" duration="60" parking="true"/>
    </trip>
	<trip id="cv_1" depart="104" from="A0" to="E01" type="cv">
        <stop index="0" parkingArea="P01" duration="60" parking="true"/>
    </trip>
	<trip id="cv_2" depart="106" from="A2" to="E23" type="cv">
        <stop index="0" parkingArea="P23" duration="60" parking="true"/>
    </trip>
	<trip id="ncv_3" depart="109" from="A2" to="E23" type="ncv">
        <stop index="0" parkingArea="P23" duration="120" parking="true"/>
    </trip>
	<trip id="ncv_4" depart="113" from="A2" to="E23" type="ncv">
        <stop index="0" parkingArea="P23" duration="120" parking="true"/>
    </trip>
	<trip id="ncv_5" depart="132" from="A3" to="E30" type="ncv">
        <stop index="0" parkingArea="P30" duration="120" parking="true"/>
    </trip>
	<trip id="cv_6" depart="136" from="A3" to="E30" type="cv">
        <stop index="0" parkingArea="P30" duration="60" parking="true"/>
    </trip>
	<trip id="ncv_7" depart="150" from="A1" to="E12" type="ncv">
        <stop index="0" parkingArea="P12" duration="120" parking="true"/>
    </trip>
	<trip id="ncv_8" depart="154" from="A1" to="E12" type="ncv">
        <stop index="0" parkingArea="P12" duration="120" parking="true"/>
    </trip>
	<trip id="cv_9" depart="157" from="A0" to="E01" type="cv">
        <stop index="0" parkingArea="P01" duration="60" parking="true"/>
    </trip>
	<trip id="ncv_10" depart="158" from="A2" to="E23" type="ncv">
        <stop index="0" parkingArea="P23" duration="120" parking="true"/>
    </trip>
	<trip id="ncv_11" depart="160" from="A2" to="E23" type="ncv">
        <stop index="0" parkingArea="P23" duration="120" parking="true"/>
    </trip>
	<trip id="cv_12" depart="166" from="A1" to="E12" type="cv">
        <stop index="0" parkingArea="P12" duration="60" parking="true"/>
    </trip>
	<trip id="ncv_13" depart="176" from="A2" to="E23" type="ncv">
        <stop index="0" parkingArea="P23" duration="120" parking="true"/>
    </trip>
	<trip id="cv_14" depart="188" from="A1" to="E12" type="cv">
        <stop index="0" parkingArea="P12" duration="60" parking="true"/>
    </trip>
	<trip id="ncv_15" depart="189" from="A2" to="E23" type="ncv">
        <stop index="0" parkingArea="P23" duration="120" parking="true"/>
    </trip>
	<trip id="ncv_16" depart="193" from="A1" to="E12" type="ncv">
        <stop index="0" parkingArea="P12" duration="120" parking="true"/>
    </trip>
	<trip id="cv_17" depart="209" from="A1" to="E12" type="cv">
        <stop index="0" parkingArea="P12" duration="60" parking="true"/>
    </trip>
	<trip id="ncv_18" depart="213" from="A3" to="E30" type="ncv">
        <stop index="0" parkingArea="P30" duration="120" parking="true"/>
    </trip>
	<trip id="cv_19" depart="229" from="A2" to="E23" type="cv">
        <stop index="0" parkingArea="P23" duration="60" parking="true"/>
    </trip>
	<trip id="ncv_20" depart="235" from="A0" to="E01" type="ncv">
        <stop index="0" parkingArea="P01" duration="120" parking="true"/>
    </trip>
	<trip id="cv_21" depart="246" from="A3" to="E30" type="cv">
        <stop index="0" parkingArea="P30" duration="60" parking="true"/>
    </trip>
	<trip id="cv_22" depart="249" from="A1" to="E12" type="cv">
        <stop index="0" parkingArea="P12" duration="60" parking="true"/>
    </trip>
	<trip id="cv_23" depart="254" from="A3" to="E30" type="cv">
        <stop index="0" parkingArea="P30" duration="60" parking="true"/>
    </trip>
	<trip id="ncv_24" depart="258" from="A0" to="E01" type="ncv">
        <stop index="0" parkingArea="P01" duration="120" parking="true"/>
    </trip>
	<trip id="cv_25" depart="259" from="A2" to="E23" type="cv">
        <stop index="0" parkingArea="P23" duration="60" parking="true"/>
    </trip>
	<trip id="ncv_26" depart="261" from="A1" to="E12" type="ncv">
        <stop index="0" parkingArea="P12" duration="120" parking="true"/>
    </trip>
	<trip id="cv_27" depart="265" from="A0" to="E01" type="cv">
        <stop index="0" parkingArea="P01" duration="60" parking="true"/>
    </trip>
	<trip id="ncv_28" depart="266" from="A2" to="E23" type="ncv">
        <stop index="0" parkingArea="P23" duration="120" parking="true"/>
    </trip>
	<trip id="cv_29" depart="268" from="A3" to="E30" type="cv">
        <stop index="0" parkingArea="P30" duration="60" parking="true"/>
    </trip>
	<trip id="ncv_30" depart="272" from="A2" to="E23" type="ncv">
        <stop index="0" parkingArea="P23" duration="120" parking="true"/>
    </trip>
	<trip id="ncv_31" depart="272" from="A3" to="E30" type="ncv">
        <stop index="0" parkingArea="P30" duration="120" parking="true"/>
    </trip>
	<trip id="ncv_32" depart="273" from="A2" to="E23" type="ncv">
        <stop index="0" parkingArea="P23" duration="120" parking="true"/>
    </trip>
	<trip id="cv_33" depart="285" from="A1" to="E12" type="cv">
        <stop index="0" parkingArea="P12" duration="60" parking="true"/>
    </trip>
	<trip id="ncv_34" depart="287" from="A1" to="E12" type="ncv">
        <stop index="0" parkingArea="P12" duration="120" parking="true"/>
    </trip>
	<trip id="cv_35" depart="291" from="A2" to="E23" type="cv">
        <stop index="0" parkingArea="P23" duration="60" parking="true"/>
    </trip>
	<trip id="cv_36" depart="297" from="A3" to="E30" type="cv">
        <stop index="0" parkingArea="P30" duration="60" parking="true"/>
    </trip>
	<trip id="cv_37" depart="304" from="A2" to="E23" type="cv">
        <stop index="0" parkingArea="P23" duration="60" parking="true"/>
    </trip>
	<trip id="ncv_38" depart="337" from="A1" to="E12" type="ncv">
        <stop index="0" parkingArea="P12" duration="120" parking="true"/>
    </trip>
	<trip id="ncv_39" depart="350" from="A1" to="E12" type="ncv">
        <stop index="0" parkingArea="P12" duration="120" parking="true"/>
    </trip>
	<trip id="ncv_40" depart="350" from="A1" to="E12" type="ncv">
        <stop index="0" parkingArea="P12" duration="120" parking="true"/>
    </trip>
	<trip id="ncv_41" depart="350" from="A3" to="E30" type="ncv">
        <stop index="0" parkingArea="P30" duration="120" parking="true"/>
    </trip>
	<trip id="cv_42" depart="354" from="A1" to="E12" type="cv">
        <stop index="0" parkingArea="P12" duration="60" parking="true"/>
    </trip>
	<trip id="cv_43" depart="355" from="A0" to="E01" type="cv">
        <stop index="0" parkingArea="P01" duration="60" parking="true"/>
    </trip>
	<trip id="ncv_44" depart="357" from="A0" to="E01" type="ncv">
        <stop index="0" parkingArea="P01" duration="120" parking="true"/>
    </trip>
	<trip id="cv_45" depart="361" from="A2" to="E23" type="cv">
        <stop index="0" parkingArea="P23" duration="60" parking="true"/>
    </trip>
	<trip id="ncv_46" depart="361" from="A3" to="E30" type="ncv">
        <stop index="0" parkingArea="P30" duration="120" parking="true"/>
    </trip>
	<trip id="ncv_47" depart="369" from="A3" to="E30" type="ncv">
        <stop index="0" parkingArea="P30" duration="120" parking="true"/>
    </trip>
	<trip id="ncv_48" depart="382" from="A0" to="E01" type="ncv">
        <stop index="0" parkingArea="P01" duration="120" parking="true"/>
    </trip>
	<trip id="ncv_49" depart="386" from="A1" to="E12" type="ncv">
        <stop index="0" parkingArea="P12" duration="120" parking="true"/>
    </trip>
	<trip id="cv_50" depart="390" from="A3" to="E30" type="cv">
        <stop index="0" parkingArea="P30" duration="60" parking="true"/>
    </trip>
	<trip id="ncv_51" depart="394" from="A1" to="E12" type="ncv">
        <stop index="0" parkingArea="P12" duration="120" parking="true"/>
    </trip>
	<trip id="cv_52" depart="402" from="A0" to="E01" type="cv">
        <stop index="0" parkingArea="P01" duration="60" parking="true"/>
    </trip>
	<trip id="cv_53" depart="403" from="A1" to="E12" type="cv">
        <stop index="0" parkingArea="P12" duration="60" parking="true"/>
    </trip>
	<trip id="ncv_54" depart="423" from="A1" to="E12" type="ncv">
        <stop index="0" parkingArea="P12" duration="120" parking="true"/>
    </trip>
	<trip id="ncv_55" depart="428" from="A0" to="E01" type="ncv">
        <stop index="0" parkingArea="P01" duration="120" parking="true"/>
    </trip>
	<trip id="ncv_56" depart="429" from="A0" to="E01" type="ncv">
        <stop index="0" parkingArea="P01" duration="120" parking="true"/>
    </trip>
	<trip id="cv_57" depart="430" from="A2" to="E23" type="cv">
        <stop index="0" parkingArea="P23" duration="60" parking="true"/>
    </trip>
	<trip id="ncv_58" depart="433" from="A2" to="E23" type="ncv">
        <stop index="0" parkingArea="P23" duration="120" parking="true"/>
    </trip>
	<trip id="cv_59" depart="437" from="A1" to="E12" type="cv">
        <stop index="0" parkingArea="P12" duration="60" parking="true"/>
    </trip>
	<trip id="ncv_60" depart="441" from="A2" to="E23" type="ncv">
        <stop index="0" parkingArea="P23" duration="120" parking="true"/>
    </trip>
	<trip id="ncv_61" depart="442" from="A3" to="E30" type="ncv">
        <stop index="0" parkingArea="P30" duration="120" parking="true"/>
    </trip>
	<trip id="ncv_62" depart="446" from="A3" to="E30" type="ncv">
        <stop index="0" parkingArea="P30" duration="120" parking="true"/>
    </trip>
	<trip id="ncv_63" depart="456" from="A3" to="E30" type="ncv">
        <stop index="0" parkingArea="P30" duration="120" parking="true"/>
    </trip>
	<trip id="ncv_64" depart="467" from="A0" to="E01" type="ncv">
        <stop index="0" parkingArea="P01" duration="120" parking="true"/>
    </trip>
	<trip id="ncv_65" depart="473" from="A0" to="E01" type="ncv">
        <stop index="0" parkingArea="P01" duration="120" parking="true"/>
    </trip>
	<trip id="cv_66" depart="474" from="A1" to="E12" type="cv">
        <stop index="0" parkingArea="P12" duration="60" parking="true"/>
    </trip>
	<trip id="ncv_67" depart="475" from="A0" to="E01" type="ncv">
        <stop index="0" parkingArea="P01" duration="120" parking="true"/>
    </trip>
	<trip id="cv_68" depart="482" from="A0" to="E01" type="cv">
        <stop index="0" parkingArea="P01" duration="60" parking="true"/>
    </trip>
	<trip id="cv_69" depart="483" from="A3" to="E30" type="cv">
        <stop index="0" parkingArea="P30" duration="60" parking="true"/>
    </trip>
	<trip id="cv_70" depart="488" from="A0" to="E01" type="cv">
        <stop index="0" parkingArea="P01" duration="60" parking="true"/>
    </trip>
	<trip id="ncv_71" depart="500" from="A2" to="E23" type="ncv">
        <stop index="0" parkingArea="P23" duration="120" parking="true"/>
    </trip>
	<trip id="ncv_72" depart="501" from="A3" to="E30" type="ncv">
        <stop index="0" parkingArea="P30" duration="120" parking="true"/>
    </trip>
	<trip id="cv_73" depart="504" from="A0" to="E01" type="cv">
        <stop index="0" parkingArea="P01" duration="60" parking="true"/>
    </trip>
	<trip id="cv_74" depart="507" from="A3" to="E30" type="cv">
        <stop index="0" parkingArea="P30" duration="60" parking="true"/>
    </trip>
	<trip id="ncv_75" depart="510" from="A2" to="E23" type="ncv">
        <stop index="0" parkingArea="P23" duration="120" parking="true"/>
    </trip>
	<trip id="cv_76" depart="512" from="A0" to="E01" type="cv">
        <stop index="0" parkingArea="P01" duration="60" parking="true"/>
    </trip>
	<trip id="cv_77" depart="512" from="A1" to="E12" type="cv">
        <stop index="0" parkingArea="P12" duration="60" parking="true"/>
    </trip>
	<trip id="ncv_78" depart="513" from="A1" to="E12" type="ncv">
        <stop index="0" parkingArea="P12" duration="120" parking="true"/>
    </trip>
	<trip id="ncv_79" depart="515" from="A1" to="E12" type="ncv">
        <stop index="0" parkingArea="P12" duration="120" parking="true"/>
    </trip>
	<trip id="ncv_80" depart="528" from="A3" to="E30" type="ncv">
        <stop index="0" parkingArea="P30" duration="120" parking="true"/>
    </trip>
	<trip id="cv_81" depart="545" from="A3" to="E30" type="cv">
        <stop index="0" parkingArea="P30" duration="60" parking="true"/>
    </trip>
	<trip id="ncv_82" depart="546" from="A0" to="E01" type="ncv">
        <stop index="0" parkingArea="P01" duration="120" parking="true"/>
    </trip>
	<trip id="cv_83" depart="570" from="A3" to="E30" type="cv">
        <stop index="0" parkingArea="P30" duration="60" parking="true"/>
    </trip>
	<trip id="ncv_84" depart="571" from="A2" to="E23" type="ncv">
        <stop index="0" parkingArea="P23" duration="120" parking="true"/>
    </trip>
	<trip id="ncv_85" depart="571" from="A3" to="E30" type="ncv">
        <stop index="0" parkingArea="P30" duration="120" parking="true"/>
    </trip>
	<trip id="cv_86" depart="572" from="A1" to="E12" type="cv">
        <stop index="0" parkingArea="P12" duration="60" parking="true"/>
    </trip>
	<trip id="ncv_87" depart="574" from="A2" to="E23" type="ncv">
        <stop index="0" parkingArea="P23" duration="120" parking="true"/>
    </trip>
	<trip id="cv_88" depart="575" from="A1" to="E12" type="cv">
        <stop index="0" parkingArea="P12" duration="60" parking="true"/>
    </trip>
	<trip id="cv_89" depart="575" from="A3" to="E30" type="cv">
        <stop index="0" parkingArea="P30" duration="60" parking="true"/>
    </trip>
	<trip id="cv_90" depart="579" from="A1" to="E12" type="cv">
        <stop index="0" parkingArea="P12" duration="60" parking="true"/>
    </trip>
	<trip id="ncv_91" depart="580" from="A1" to="E12" type="ncv">
        <stop index="0" parkingArea="P12" duration="120" parking="true"/>
    </trip>
	<trip id="ncv_92" depart="587" from="A2" to="E23" type="ncv">
        <stop index="0" parkingArea="P23" duration="120" parking="true"/>
    </trip>
	<trip id="ncv_93" depart="587" from="A3" to="E30" type="ncv">
        <stop index="0" parkingArea="P30" duration="120" parking="true"/>
    </trip>
	<trip id="cv_94" depart="590" from="A1" to="E12" type="cv">
        <stop index="0" parkingArea="P12" duration="60" parking="true"/>
    </trip>
	<trip id="cv_95" depart="607" from="A1" to="E12" type="cv">
        <stop index="0" parkingArea="P12" duration="60" parking="true"/>
    </trip>
	<trip id="cv_96" depart="609" from="A1" to="E12" type="cv">
        <stop index="0" parkingArea="P12" duration="60" parking="true"/>
    </trip>
	<trip id="cv_97" depart="609" from="A3" to="E30" type="cv">
        <stop index="0" parkingArea="P30" duration="60" parking="true"/>
    </trip>
	<trip id="ncv_98" depart="611" from="A0" to="E01" type="ncv">
        <stop index="0" parkingArea="P01" duration="120" parking="true"/>
    </trip>
	<trip id="cv_99" depart="631" from="A3" to="E30" type="cv">
        <stop index="0" parkingArea="P30" duration="60" parking="true"/>
    </trip>
	<trip id="ncv_100" depart="633" from="A0" to="E01" type="ncv">
        <stop index="0" parkingArea="P01" duration="120" parking="true"/>
    </trip>
	<trip id="ncv_101" depart="634" from="A2" to="E23" type="ncv">
        <stop index="0" parkingArea="P23" duration="120" parking="true"/>
    </trip>
	<trip id="cv_102" depart="642" from="A2" to="E23" type="cv">
        <stop index="0" parkingArea="P23" duration="60" parking="true"/>
    </trip>
	<trip id="ncv_103" depart="646" from="A2" to="E23" type="ncv">
        <stop index="0" parkingArea="P23" duration="120" parking="true"/>
    </trip>
	<trip id="cv_104" depart="652" from="A2" to="E23" type="cv">
        <stop index="0" parkingArea="P23" duration="60" parking="true"/>
    </trip>
	<trip id="cv_105" depart="667" from="A3" to="E30" type="cv">
        <stop index="0" parkingArea="P30" duration="60" parking="true"/>
    </trip>
	<trip id="cv_106" depart="670" from="A0" to="E01" type="cv">
        <stop index="0" parkingArea="P01" duration="60" parking="true"/>
    </trip>
	<trip id="cv_107" depart="672" from="A0" to="E01" type="cv">
        <stop index="0" parkingArea="P01" duration="60" parking="true"/>
    </trip>
	<trip id="ncv_108" depart="683" from="A0" to="E01" type="ncv">
        <stop index="0" parkingArea="P01" duration="120" parking="true"/>
    </trip>
	<trip id="cv_109" depart="699" from="A1" to="E12" type="cv">
        <stop index="0" parkingArea="P12" duration="60" parking="true"/>
    </trip>
	<trip id="ncv_110" depart="699" from="A3" to="E30" type="ncv">
        <stop index="0" parkingArea="P30" duration="120" parking="true"/>
    </trip>
	<trip id="cv_111" depart="701" from="A0" to="E01" type="cv">
        <stop index="0" parkingArea="P01" duration="60" parking="true"/>
    </trip>
	<trip id="ncv_112" depart="712" from="A0" to="E01" type="ncv">
        <stop index="0" parkingArea="P01" duration="120" parking="true"/>
    </trip>
	<trip id="cv_113" depart="712" from="A3" to="E30" type="cv">
        <stop index="0" parkingArea="P30" duration="60" parking="true"/>
    </trip>
	<trip id="cv_114" depart="718" from="A3" to="E30" type="cv">
        <stop index="0" parkingArea="P30" duration="60" parking="true"/>
    </trip>
	<trip id="ncv_115" depart="719" from="A3" to="E30" type="ncv">
        <stop index="0" parkingArea="P30" duration="120" parking="true"/>
    </trip>
	<trip id="ncv_116" depart="728" from="A1" to="E12" type="ncv">
        <stop index="0" parkingArea="P12" duration="120" parking="true"/>
    </trip>
	<trip id="ncv_117" depart="732" from="A2" to="E23" type="ncv">
        <stop index="0" parkingArea="P23" duration="120" parking="true"/>
    </trip>
	<trip id="ncv_118" depart="737" from="A3" to="E30" type="ncv">
        <stop index="0" parkingArea="P30" duration="120" parking="true"/>
    </trip>
	<trip id="cv_119" depart="745" from="A2" to="E23" type="cv">
        <stop index="0" parkingArea="P23" duration="60" parking="true"/>
    </trip>
	<trip id="ncv_120" depart="748" from="A1" to="E12" type="ncv">
        <stop index="0" parkingArea="P12" duration="120" parking="true"/>
    </trip>
	<trip id="cv_121" depart="755" from="A2" to="E23" type="cv">
        <stop index="0" parkingArea="P23" duration="60" parking="true"/>
    </trip>
	<trip id="ncv_122" depart="763" from="A1" to="E12" type="ncv">
        <stop index="0" parkingArea="P12" duration="120" parking="true"/>
    </trip>
	<trip id="cv_123" depart="771" from="A3" to="E30" type="cv">
        <stop index="0" parkingArea="P30" duration="60" parking="true"/>
    </trip>
	<trip id="cv_124" depart="778" from="A2" to="E23" type="cv">
        <stop index="0" parkingArea="P23" duration="60" parking="true"/>
    </trip>
	<trip id="ncv_125" depart="782" from="A3" to="E30" type="ncv">
        <stop index="0" parkingArea="P30" duration="120" parking="true"/>
    </trip>
	<trip id="ncv_126" depart="782" from="A3" to="E30" type="ncv">
        <stop index="0" parkingArea="P30" duration="120" parking="true"/>
    </trip>
	<trip id="ncv_127" depart="793" from="A1" to="E12" type="ncv">
        <stop index="0" parkingArea="P12" duration="120" parking="true"/>
    </trip>
	<trip id="cv_128" depart="798" from="A1" to="E12" type="cv">
        <stop index="0" parkingArea="P12" duration="60" parking="true"/>
    </trip>
	<trip id="ncv_129" depart="816" from="A1" to="E12" type="ncv">
        <stop index="0" parkingArea="P12" duration="120" parking="true"/>
    </trip>
	<trip id="cv_130" depart="830" from="A3" to="E30" type="cv">
        <stop index="0" parkingArea="P30" duration="60" parking="true"/>
    </trip>
	<trip id="cv_131" depart="835" from="A3" to="E30" type="cv">
        <stop index="0" parkingArea="P30" duration="60" parking="true"/>
    </trip>
	<trip id="ncv_132" depart="838" from="A1" to="E12" type="ncv">
        <stop index="0" parkingArea="P12" duration="120" parking="true"/>
    </trip>
	<trip id="ncv_133" depart="846" from="A2" to="E23" type="ncv">
        <stop index="0" parkingArea="P23" duration="120" parking="true"/>
    </trip>
	<trip id="ncv_134" depart="853" from="A0" to="E01" type="ncv">
        <stop index="0" parkingArea="P01" duration="120" parking="true"/>
    </trip>
	<trip id="cv_135" depart="857" from="A1" to="E12" type="cv">
        <stop index="0" parkingArea="P12" duration="60" parking="true"/>
    </trip>
	<trip id="ncv_136" depart="864" from="A0" to="E01" type="ncv">
        <stop index="0" parkingArea="P01" duration="120" parking="true"/>
    </trip>
	<trip id="ncv_137" depart="870" from="A2" to="E23" type="ncv">
        <stop index="0" parkingArea="P23" duration="120" parking="true"/>
    </trip>
	<trip id="cv_138" depart="872" from="A1" to="E12" type="cv">
        <stop index="0" parkingArea="P12" duration="60" parking="true"/>
    </trip>
	<trip id="ncv_139" depart="875" from="A0" to="E01" type="ncv">
        <stop index="0" parkingArea="P01" duration="120" parking="true"/>
    </trip>
	<trip id="cv_140" depart="879" from="A1" to="E12" type="cv">
        <stop index="0" parkingArea="P12" duration="60" parking="true"/>
    </trip>
	<trip id="ncv_141" depart="880" from="A2" to="E23" type="ncv">
        <stop index="0" parkingArea="P23" duration="120" parking="true"/>
    </trip>
	<trip id="ncv_142" depart="882" from="A0" to="E01" type="ncv">
        <stop index="0" parkingArea="P01" duration="120" parking="true"/>
    </trip>
	<trip id="ncv_143" depart="886" from="A3" to="E30" type="ncv">
        <stop index="0" parkingArea="P30" duration="120" parking="true"/>
    </trip>
	<trip id="cv_144" depart="887" from="A2" to="E23" type="cv">
        <stop index="0" parkingArea="P23" duration="60" parking="true"/>
    </trip>
	<trip id="cv_145" depart="897" from="A1" to="E12" type="cv">
        <stop index="0" parkingArea="P12" duration="60" parking="true"/>
    </trip>
	<trip id="ncv_146" depart="910" from="A3" to="E30" type="ncv">
        <stop index="0" parkingArea="P30" duration="120" parking="true"/>
    </trip>
	<trip id="ncv_147" depart="911" from="A3" to="E30" type="ncv">
        <stop index="0" parkingArea="P30" duration="120" parking="true"/>
    </trip>
	<trip id="ncv_148" depart="913" from="A2" to="E23" type="ncv">
        <stop index="0" parkingArea="P23" duration="120" parking="true"/>
    </trip>
	<trip id="ncv_149" depart="916" from="A1" to="E12" type="ncv">
        <stop index="0" parkingArea="P12" duration="120" parking="true"/>
    </trip>
	<trip id="ncv_150" depart="926" from="A3" to="E30" type="ncv">
        <stop index="0" parkingArea="P30" duration="120" parking="true"/>
    </trip>
	<trip id="ncv_151" depart="932" from="A0" to="E01" type="ncv">
        <stop index="0" parkingArea="P01" duration="120" parking="true"/>
    </trip>
	<trip id="ncv_152" depart="933" from="A1" to="E12" type="ncv">
        <stop index="0" parkingArea="P12" duration="120" parking="true"/>
    </trip>
	<trip id="cv_153" depart="937" from="A0" to="E01" type="cv">
        <stop index="0" parkingArea="P01" duration="60" parking="true"/>
    </trip>
	<trip id="ncv_154" depart="942" from="A2" to="E23" type="ncv">
        <stop index="0" parkingArea="P23" duration="120" parking="true"/>
    </trip>
	<trip id="ncv_155" depart="948" from="A3" to="E30" type="ncv">
        <stop index="0" parkingArea="P30" duration="120" parking="true"/>
    </trip>
	<trip id="cv_156" depart="951" from="A3" to="E30" type="cv">
        <stop index="0" parkingArea="P30" duration="60" parking="true"/>
    </trip>
	<trip id="cv_157" depart="962" from="A1" to="E12" type="cv">
        <stop index="0" parkingArea="P12" duration="60" parking="true"/>
    </trip>
	<trip id="ncv_158" depart="974" from="A2" to="E23" type="ncv">
        <stop index="0" parkingArea="P23" duration="120" parking="true"/>
    </trip>
	<trip id="ncv_159" depart="981" from="A0" to="E01" type="ncv">
        <stop index="0" parkingArea="P01" duration="120" parking="true"/>
    </trip>
	<trip id="ncv_160" depart="984" from="A3" to="E30" type="ncv">
        <stop index="0" parkingArea="P30" duration="120" parking="true"/>
    </trip>
	<trip id="ncv_161" depart="989" from="A3" to="E30" type="ncv">
        <stop index="0" parkingArea="P30" duration="120" parking="true"/>
    </trip>
	<trip id="cv_162" depart="994" from="A0" to="E01" type="cv">
        <stop index="0" parkingArea="P01" duration="60" parking="true"/>
    </trip>
	<trip id="cv_163" depart="996" from="A1" to="E12" type="cv">
        <stop index="0" parkingArea="P12" duration="60" parking="true"/>
    </trip>
	<trip id="ncv_164" depart="1001" from="A3" to="E30" type="ncv">
        <stop index="0" parkingArea="P30" duration="120" parking="true"/>
    </trip>
	<trip id="cv_165" depart="1003" from="A1" to="E12" type="cv">
        <stop index="0" parkingArea="P12" duration="60" parking="true"/>
    </trip>
	<trip id="ncv_166" depart="1004" from="A1" to="E12" type="ncv">
        <stop index="0" parkingArea="P12" duration="120" parking="true"/>
    </trip>
	<trip id="ncv_167" depart="1005" from="A3" to="E30" type="ncv">
        <stop index="0" parkingArea="P30" duration="120" parking="true"/>
    </trip>
	<trip id="ncv_168" depart="1008" from="A0" to="E01" type="ncv">
        <stop index="0" parkingArea="P01" duration="120" parking="true"/>
    </trip>
	<trip id="cv_169" depart="1013" from="A2" to="E23" type="cv">
        <stop index="0" parkingArea="P23" duration="60" parking="true"/>
    </trip>
	<trip id="ncv_170" depart="1064" from="A0" to="E01" type="ncv">
        <stop index="0" parkingArea="P01" duration="120" parking="true"/>
    </trip>
	<trip id="ncv_171" depart="1077" from="A0" to="E01" type="ncv">
        <stop index="0" parkingArea="P01" duration="120" parking="true"/>
    </trip>
	<trip id="cv_172" depart="1080" from="A2" to="E23" type="cv">
        <stop index="0" parkingArea="P23" duration="60" parking="true"/>
    </trip>
	<trip id="cv_173" depart="1081" from="A3" to="E30" type="cv">
        <stop index="0" parkingArea="P30" duration="60" parking="true"/>
    </trip>
	<trip id="cv_174" depart="1083" from="A2" to="E23" type="cv">
        <stop index="0" parkingArea="P23" duration="60" parking="true"/>
    </trip>
	<trip id="ncv_175" depart="1091" from="A0" to="E01" type="ncv">
        <stop index="0" parkingArea="P01" duration="120" parking="true"/>
    </trip>
	<trip id="cv_176" depart="1095" from="A1" to="E12" type="cv">
        <stop index="0" parkingArea="P12" duration="60" parking="true"/>
    </trip>
	<trip id="cv_177" depart="1099" from="A0" to="E01" type="cv">
        <stop index="0" parkingArea="P01" duration="60" parking="true"/>
    </trip>
	<trip id="cv_178" depart="1126" from="A0" to="E01" type="cv">
        <stop index="0" parkingArea="P01" duration="60" parking="true"/>
    </trip>
	<trip id="ncv_179" depart="1126" from="A1" to="E12" type="ncv">
        <stop index="0" parkingArea="P12" duration="120" parking="true"/>
    </trip>
	<trip id="ncv_180" depart="1127" from="A1" to="E12" type="ncv">
        <stop index="0" parkingArea="P12" duration="120" parking="true"/>
    </trip>
	<trip id="ncv_181" depart="1150" from="A2" to="E23" type="ncv">
        <stop index="0" parkingArea="P23" duration="120" parking="true"/>
    </trip>
	<trip id="ncv_182" depart="1150" from="A3" to="E30" type="ncv">
        <stop index="0" parkingArea="P30" duration="120" parking="true"/>
    </trip>
	<trip id="cv_183" depart="1160" from="A0" to="E01" type="cv">
        <stop index="0" parkingArea="P01" duration="60" parking="true"/>
    </trip>
	<trip id="cv_184" depart="1161" from="A2" to="E23" type="cv">
        <stop index="0" parkingArea="P23" duration="60" parking="true"/>
    </trip>
	<trip id="ncv_185" depart="1163" from="A2" to="E23" type="ncv">
        <stop index="0" parkingArea="P23" duration="120" parking="true"/>
    </trip>
	<trip id="ncv_186" depart="1164" from="A1" to="E12" type="ncv">
        <stop index="0" parkingArea="P12" duration="120" parking="true"/>
    </trip>
	<trip id="ncv_187" depart="1165" from="A0" to="E01" type="ncv">
        <stop index="0" parkingArea="P01" duration="120" parking="true"/>
    </trip>
	<trip id="ncv_188" depart="1165" from="A1" to="E12" type="ncv">
        <stop index="0" parkingArea="P12" duration="120" parking="true"/>
    </trip>
	<trip id="cv_189" depart="1166" from="A0" to="E01" type="cv">
        <stop index="0" parkingArea="P01" duration="60" parking="true"/>
    </trip>
	<trip id="ncv_190" depart="1168" from="A3" to="E30" type="ncv">
        <stop index="0" parkingArea="P30" duration="120" parking="true"/>
    </trip>
	<trip id="cv_191" depart="1204" from="A3" to="E30" type="cv">
        <stop index="0" parkingArea="P30" duration="60" parking="true"/>
    </trip>
	<trip id="cv_192" depart="1210" from="A1" to="E12" type="cv">
        <stop index="0" parkingArea="P12" duration="60" parking="true"/>
    </trip>
	<trip id="cv_193" depart="1211" from="A3" to="E30" type="cv">
        <stop index="0" parkingArea="P30" duration="60" parking="true"/>
    </trip>
	<trip id="ncv_194" depart="1225" from="A2" to="E23" type="ncv">
        <stop index="0" parkingArea="P23" duration="120" parking="true"/>
    </trip>
	<trip id="cv_195" depart="1227" from="A1" to="E12" type="cv">
        <stop index="0" parkingArea="P12" duration="60" parking="true"/>
    </trip>
	<trip id="ncv_196" depart="1228" from="A0" to="E01" type="ncv">
        <stop index="0" parkingArea="P01" duration="120" parking="true"/>
    </trip>
	<trip id="ncv_197" depart="1240" from="A2" to="E23" type="ncv">
        <stop index="0" parkingArea="P23" duration="120" parking="true"/>
    </trip>
	<trip id="ncv_198" depart="1246" from="A2" to="E23" type="ncv">