<?xml version="1.0" encoding="UTF-8"?>
              <routes xmlns:xsi="http://www.w3.org/2001/XMLSchema-instance" xsi:noNamespaceSchemaLocation="http://sumo.dlr.de/xsd/routes_file.xsd">
              
	<vType id="ncv" vClass="passenger" guiShape="passenger/sedan" color="255,183,59"></vType>

    <vType id="f" vClass="passenger" guiShape="passenger/hatchback" color="192,192,192"></vType>

    <vType id="cv" vClass="passenger" guiShape="evehicle" color="245,39,224"></vType>
          
	<flow id="back_0" begin="0" end="3700" number="0" from="A0" to="E30" type="f"/>
	<flow id="back_1" begin="0" end="3700" number="0" from="A1" to="E01" type="f"/>
	<flow id="back_2" begin="0" end="3700" number="0" from="A2" to="E12" type="f"/>
	<flow id="back_3" begin="0" end="3700" number="0" from="A3" to="E23" type="f"/>
	<trip id="ncv_0" depart="103" from="A3" to="E30" type="ncv">
        <stop index="0" parkingArea="P30" duration="180" parking="true"/>
    </trip>
	<trip id="cv_1" depart="106" from="A2" to="E23" type="cv">
        <stop index="0" parkingArea="P23" duration="90" parking="true"/>
    </trip>
	<trip id="cv_2" depart="110" from="A3" to="E30" type="cv">
        <stop index="0" parkingArea="P30" duration="90" parking="true"/>
    </trip>
	<trip id="ncv_3" depart="113" from="A1" to="E12" type="ncv">
        <stop index="0" parkingArea="P12" duration="180" parking="true"/>
    </trip>
	<trip id="cv_4" depart="119" from="A2" to="E23" type="cv">
        <stop index="0" parkingArea="P23" duration="90" parking="true"/>
    </trip>
	<trip id="cv_5" depart="122" from="A2" to="E23" type="cv">
        <stop index="0" parkingArea="P23" duration="90" parking="true"/>
    </trip>
	<trip id="ncv_6" depart="129" from="A0" to="E01" type="ncv">
        <stop index="0" parkingArea="P01" duration="180" parking="true"/>
    </trip>
	<trip id="ncv_7" depart="135" from="A3" to="E30" type="ncv">
        <stop index="0" parkingArea="P30" duration="180" parking="true"/>
    </trip>
	<trip id="ncv_8" depart="138" from="A0" to="E01" type="ncv">
        <stop index="0" parkingArea="P01" duration="180" parking="true"/>
    </trip>
	<trip id="ncv_9" depart="143" from="A1" to="E12" type="ncv">
        <stop index="0" parkingArea="P12" duration="180" parking="true"/>
    </trip>
	<trip id="ncv_10" depart="143" from="A3" to="E30" type="ncv">
        <stop index="0" parkingArea="P30" duration="180" parking="true"/>
    </trip>
	<trip id="ncv_11" depart="153" from="A1" to="E12" type="ncv">
        <stop index="0" parkingArea="P12" duration="180" parking="true"/>
    </trip>
	<trip id="ncv_12" depart="153" from="A2" to="E23" type="ncv">
        <stop index="0" parkingArea="P23" duration="180" parking="true"/>
    </trip>
	<trip id="ncv_13" depart="162" from="A3" to="E30" type="ncv">
        <stop index="0" parkingArea="P30" duration="180" parking="true"/>
    </trip>
	<trip id="ncv_14" depart="174" from="A0" to="E01" type="ncv">
        <stop index="0" parkingArea="P01" duration="180" parking="true"/>
    </trip>
	<trip id="ncv_15" depart="174" from="A3" to="E30" type="ncv">
        <stop index="0" parkingArea="P30" duration="180" parking="true"/>
    </trip>
	<trip id="ncv_16" depart="175" from="A2" to="E23" type="ncv">
        <stop index="0" parkingArea="P23" duration="180" parking="true"/>
    </trip>
	<trip id="ncv_17" depart="177" from="A3" to="E30" type="ncv">
        <stop index="0" parkingArea="P30" duration="180" parking="true"/>
    </trip>
	<trip id="cv_18" depart="181" from="A0" to="E01" type="cv">
        <stop index="0" parkingArea="P01" duration="90" parking="true"/>
    </trip>
	<trip id="ncv_19" depart="182" from="A2" to="E23" type="ncv">
        <stop index="0" parkingArea="P23" duration="180" parking="true"/>
    </trip>
	<trip id="ncv_20" depart="194" from="A2" to="E23" type="ncv">
        <stop index="0" parkingArea="P23" duration="180" parking="true"/>
    </trip>
	<trip id="cv_21" depart="205" from="A0" to="E01" type="cv">
        <stop index="0" parkingArea="P01" duration="90" parking="true"/>
    </trip>
	<trip id="ncv_22" depart="205" from="A0" to="E01" type="ncv">
        <stop index="0" parkingArea="P01" duration="180" parking="true"/>
    </trip>
	<trip id="ncv_23" depart="208" from="A1" to="E12" type="ncv">
        <stop index="0" parkingArea="P12" duration="180" parking="true"/>
    </trip>
	<trip id="ncv_24" depart="214" from="A2" to="E23" type="ncv">
        <stop index="0" parkingArea="P23" duration="180" parking="true"/>
    </trip>
	<trip id="ncv_25" depart="214" from="A3" to="E30" type="ncv">
        <stop index="0" parkingArea="P30" duration="180" parking="true"/>
    </trip>
	<trip id="cv_26" depart="229" from="A1" to="E12" type="cv">
        <stop index="0" parkingArea="P12" duration="90" parking="true"/>
    </trip>
	<trip id="cv_27" depart="230" from="A3" to="E30" type="cv">
        <stop index="0" parkingArea="P30" duration="90" parking="true"/>
    </trip>
	<trip id="ncv_28" depart="239" from="A3" to="E30" type="ncv">
        <stop index="0" parkingArea="P30" duration="180" parking="true"/>
    </trip>
	<trip id="ncv_29" depart="240" from="A1" to="E12" type="ncv">
        <stop index="0" parkingArea="P12" duration="180" parking="true"/>
    </trip>
	<trip id="ncv_30" depart="240" from="A3" to="E30" type="ncv">
        <stop index="0" parkingArea="P30" duration="180" parking="true"/>
    </trip>
	<trip id="ncv_31" depart="245" from="A0" to="E01" type="ncv">
        <stop index="0" parkingArea="P01" duration="180" parking="true"/>
    </trip>
	<trip id="cv_32" depart="250" from="A1" to="E12" type="cv">
        <stop index="0" parkingArea="P12" duration="90" parking="true"/>
    </trip>
	<trip id="cv_33" depart="251" from="A1" to="E12" type="cv">
        <stop index="0" parkingArea="P12" duration="90" parking="true"/>
    </trip>
	<trip id="ncv_34" depart="252" from="A3" to="E30" type="ncv">
        <stop index="0" parkingArea="P30" duration="180" parking="true"/>
    </trip>
	<trip id="ncv_35" depart="256" from="A3" to="E30" type="ncv">
        <stop index="0" parkingArea="P30" duration="180" parking="true"/>
    </trip>
	<trip id="ncv_36" depart="259" from="A3" to="E30" type="ncv">
        <stop index="0" parkingArea="P30" duration="180" parking="true"/>
    </trip>
	<trip id="ncv_37" depart="265" from="A1" to="E12" type="ncv">
        <stop index="0" parkingArea="P12" duration="180" parking="true"/>
    </trip>
	<trip id="ncv_38" depart="267" from="A0" to="E01" type="ncv">
        <stop index="0" parkingArea="P01" duration="180" parking="true"/>
    </trip>
	<trip id="ncv_39" depart="269" from="A1" to="E12" type="ncv">
        <stop index="0" parkingArea="P12" duration="180" parking="true"/>
    </trip>
	<trip id="ncv_40" depart="275" from="A0" to="E01" type="ncv">
        <stop index="0" parkingArea="P01" duration="180" parking="true"/>
    </trip>
	<trip id="ncv_41" depart="276" from="A3" to="E30" type="ncv">
        <stop index="0" parkingArea="P30" duration="180" parking="true"/>
    </trip>
	<trip id="ncv_42" depart="277" from="A0" to="E01" type="ncv">
        <stop index="0" parkingArea="P01" duration="180" parking="true"/>
    </trip>
	<trip id="ncv_43" depart="282" from="A1" to="E12" type="ncv">
        <stop index="0" parkingArea="P12" duration="180" parking="true"/>
    </trip>
	<trip id="ncv_44" depart="283" from="A0" to="E01" type="ncv">
        <stop index="0" parkingArea="P01" duration="180" parking="true"/>
    </trip>
	<trip id="ncv_45" depart="289" from="A0" to="E01" type="ncv">
        <stop index="0" parkingArea="P01" duration="180" parking="true"/>
    </trip>
	<trip id="ncv_46" depart="292" from="A2" to="E23" type="ncv">
        <stop index="0" parkingArea="P23" duration="180" parking="true"/>
    </trip>
	<trip id="cv_47" depart="310" from="A1" to="E12" type="cv">
        <stop index="0" parkingArea="P12" duration="90" parking="true"/>
    </trip>
	<trip id="cv_48" depart="316" from="A2" to="E23" type="cv">
        <stop index="0" parkingArea="P23" duration="90" parking="true"/>
    </trip>
	<trip id="ncv_49" depart="318" from="A1" to="E12" type="ncv">
        <stop index="0" parkingArea="P12" duration="180" parking="true"/>
    </trip>
	<trip id="ncv_50" depart="326" from="A0" to="E01" type="ncv">
        <stop index="0" parkingArea="P01" duration="180" parking="true"/>
    </trip>
	<trip id="cv_51" depart="341" from="A0" to="E01" type="cv">
        <stop index="0" parkingArea="P01" duration="90" parking="true"/>
    </trip>
	<trip id="ncv_52" depart="343" from="A0" to="E01" type="ncv">
        <stop index="0" parkingArea="P01" duration="180" parking="true"/>
    </trip>
	<trip id="ncv_53" depart="347" from="A1" to="E12" type="ncv">
        <stop index="0" parkingArea="P12" duration="180" parking="true"/>
    </trip>
	<trip id="cv_54" depart="350" from="A3" to="E30" type="cv">
        <stop index="0" parkingArea="P30" duration="90" parking="true"/>
    </trip>
	<trip id="ncv_55" depart="352" from="A0" to="E01" type="ncv">
        <stop index="0" parkingArea="P01" duration="180" parking="true"/>
    </trip>
	<trip id="ncv_56" depart="353" from="A3" to="E30" type="ncv">
        <stop index="0" parkingArea="P30" duration="180" parking="true"/>
    </trip>
	<trip id="ncv_57" depart="354" from="A0" to="E01" type="ncv">
        <stop index="0" parkingArea="P01" duration="180" parking="true"/>
    </trip>
	<trip id="ncv_58" depart="361" from="A3" to="E30" type="ncv">
        <stop index="0" parkingArea="P30" duration="180" parking="true"/>
    </trip>
	<trip id="ncv_59" depart="371" from="A2" to="E23" type="ncv">
        <stop index="0" parkingArea="P23" duration="180" parking="true"/>
    </trip>
	<trip id="cv_60" depart="372" from="A0" to="E01" type="cv">
        <stop index="0" parkingArea="P01" duration="90" parking="true"/>
    </trip>
	<trip id="ncv_61" depart="372" from="A0" to="E01" type="ncv">
        <stop index="0" parkingArea="P01" duration="180" parking="true"/>
    </trip>
	<trip id="ncv_62" depart="374" from="A1" to="E12" type="ncv">
        <stop index="0" parkingArea="P12" duration="180" parking="true"/>
    </trip>
	<trip id="ncv_63" depart="377" from="A2" to="E23" type="ncv">
        <stop index="0" parkingArea="P23" duration="180" parking="true"/>
    </trip>
	<trip id="cv_64" depart="377" from="A3" to="E30" type="cv">
        <stop index="0" parkingArea="P30" duration="90" parking="true"/>
    </trip>
	<trip id="ncv_65" depart="382" from="A2" to="E23" type="ncv">
        <stop index="0" parkingArea="P23" duration="180" parking="true"/>
    </trip>
	<trip id="ncv_66" depart="392" from="A3" to="E30" type="ncv">
        <stop index="0" parkingArea="P30" duration="180" parking="true"/>
    </trip>
	<trip id="ncv_67" depart="392" from="A3" to="E30" type="ncv">
        <stop index="0" parkingArea="P30" duration="180" parking="true"/>
    </trip>
	<trip id="ncv_68" depart="404" from="A1" to="E12" type="ncv">
        <stop index="0" parkingArea="P12" duration="180" parking="true"/>
    </trip>
	<trip id="ncv_69" depart="406" from="A1" to="E12" type="ncv">
        <stop index="0" parkingArea="P12" duration="180" parking="true"/>
    </trip>
	<trip id="cv_70" depart="410" from="A2" to="E23" type="cv">
        <stop index="0" parkingArea="P23" duration="90" parking="true"/>
    </trip>
	<trip id="ncv_71" depart="414" from="A2" to="E23" type="ncv">
        <stop index="0" parkingArea="P23" duration="180" parking="true"/>
    </trip>
	<trip id="ncv_72" depart="415" from="A2" to="E23" type="ncv">
        <stop index="0" parkingArea="P23" duration="180" parking="true"/>
    </trip>
	<trip id="ncv_73" depart="416" from="A1" to="E12" type="ncv">
        <stop index="0" parkingArea="P12" duration="180" parking="true"/>
    </trip>
	<trip id="ncv_74" depart="418" from="A0" to="E01" type="ncv">
        <stop index="0" parkingArea="P01" duration="180" parking="true"/>
    </trip>
	<trip id="ncv_75" depart="423" from="A1" to="E12" type="ncv">
        <stop index="0" parkingArea="P12" duration="180" parking="true"/>
    </trip>
	<trip id="ncv_76" depart="426" from="A1" to="E12" type="ncv">
        <stop index="0" parkingArea="P12" duration="180" parking="true"/>
    </trip>
	<trip id="ncv_77" depart="432" from="A0" to="E01" type="ncv">
        <stop index="0" parkingArea="P01" duration="180" parking="true"/>
    </trip>
	<trip id="cv_78" depart="433" from="A3" to="E30" type="cv">
        <stop index="0" parkingArea="P30" duration="90" parking="true"/>
    </trip>
	<trip id="ncv_79" depart="433" from="A3" to="E30" type="ncv">
        <stop index="0" parkingArea="P30" duration="180" parking="true"/>
    </trip>
	<trip id="cv_80" depart="435" from="A3" to="E30" type="cv">
        <stop index="0" parkingArea="P30" duration="90" parking="true"/>
    </trip>
	<trip id="ncv_81" depart="438" from="A0" to="E01" type="ncv">
        <stop index="0" parkingArea="P01" duration="180" parking="true"/>
    </trip>
	<trip id="ncv_82" depart="438" from="A2" to="E23" type="ncv">
        <stop index="0" parkingArea="P23" duration="180" parking="true"/>
    </trip>
	<trip id="ncv_83" depart="441" from="A3" to="E30" type="ncv">
        <stop index="0" parkingArea="P30" duration="180" parking="true"/>
    </trip>
	<trip id="ncv_84" depart="448" from="A1" to="E12" type="ncv">
        <stop index="0" parkingArea="P12" duration="180" parking="true"/>
    </trip>
	<trip id="ncv_85" depart="451" from="A3" to="E30" type="ncv">
        <stop index="0" parkingArea="P30" duration="180" parking="true"/>
    </trip>
	<trip id="cv_86" depart="455" from="A0" to="E01" type="cv">
        <stop index="0" parkingArea="P01" duration="90" parking="true"/>
    </trip>
	<trip id="ncv_87" depart="463" from="A2" to="E23" type="ncv">
        <stop index="0" parkingArea="P23" duration="180" parking="true"/>
    </trip>
	<trip id="ncv_88" depart="465" from="A0" to="E01" type="ncv">
        <stop index="0" parkingArea="P01" duration="180" parking="true"/>
    </trip>
	<trip id="cv_89" depart="469" from="A0" to="E01" type="cv">
        <stop index="0" parkingArea="P01" duration="90" parking="true"/>
    </trip>
	<trip id="ncv_90" depart="474" from="A2" to="E23" type="ncv">
        <stop index="0" parkingArea="P23" duration="180" parking="true"/>
    </trip>
	<trip id="ncv_91" depart="480" from="A1" to="E12" type="ncv">
        <stop index="0" parkingArea="P12" duration="180" parking="true"/>
    </trip>
	<trip id="ncv_92" depart="482" from="A2" to="E23" type="ncv">
        <stop index="0" parkingArea="P23" duration="180" parking="true"/>
    </trip>
	<trip id="ncv_93" depart="489" from="A1" to="E12" type="ncv">
        <stop index="0" parkingArea="P12" duration="180" parking="true"/>
    </trip>
	<trip id="cv_94" depart="496" from="A3" to="E30" type="cv">
        <stop index="0" parkingArea="P30" duration="90" parking="true"/>
    </trip>
	<trip id="ncv_95" depart="497" from="A0" to="E01" type="ncv">
        <stop index="0" parkingArea="P01" duration="180" parking="true"/>
    </trip>
	<trip id="ncv_96" depart="503" from="A2" to="E23" type="ncv">
        <stop index="0" parkingArea="P23" duration="180" parking="true"/>
    </trip>
	<trip id="ncv_97" depart="513" from="A0" to="E01" type="ncv">
        <stop index="0" parkingArea="P01" duration="180" parking="true"/>
    </trip>
	<trip id="cv_98" depart="522" from="A0" to="E01" type="cv">
        <stop index="0" parkingArea="P01" duration="90" parking="true"/>
    </trip>
	<trip id="ncv_99" depart="524" from="A3" to="E30" type="ncv">
        <stop index="0" parkingArea="P30" duration="180" parking="true"/>
    </trip>
	<trip id="cv_100" depart="534" from="A0" to="E01" type="cv">
        <stop index="0" parkingArea="P01" duration="90" parking="true"/>
    </trip>
	<trip id="ncv_101" depart="538" from="A3" to="E30" type="ncv">
        <stop index="0" parkingArea="P30" duration="180" parking="true"/>
    </trip>
	<trip id="cv_102" depart="553" from="A2" to="E23" type="cv">
        <stop index="0" parkingArea="P23" duration="90" parking="true"/>
    </trip>
	<trip id="ncv_103" depart="562" from="A1" to="E12" type="ncv">
        <stop index="0" parkingArea="P12" duration="180" parking="true"/>
    </trip>
	<trip id="ncv_104" depart="565" from="A0" to="E01" type="ncv">
        <stop index="0" parkingArea="P01" duration="180" parking="true"/>
    </trip>
	<trip id="ncv_105" depart="568" from="A1" to="E12" type="ncv">
        <stop index="0" parkingArea="P12" duration="180" parking="true"/>
    </trip>
	<trip id="ncv_106" depart="574" from="A1" to="E12" type="ncv">
        <stop index="0" parkingArea="P12" duration="180" parking="true"/>
    </trip>
	<trip id="ncv_107" depart="574" from="A3" to="E30" type="ncv">
        <stop index="0" parkingArea="P30" duration="180" parking="true"/>
    </trip>
	<trip id="cv_108" depart="578" from="A1" to="E12" type="cv">
        <stop index="0" parkingArea="P12" duration="90" parking="true"/>
    </trip>
	<trip id="ncv_109" depart="578" from="A2" to="E23" type="ncv">
        <stop index="0" parkingArea="P23" duration="180" parking="true"/>
    </trip>
	<trip id="ncv_110" depart="578" from="A3" to="E30" type="ncv">
        <stop index="0" parkingArea="P30" duration="180" parking="true"/>
    </trip>
	<trip id="ncv_111" depart="584" from="A1" to="E12" type="ncv">
        <stop index="0" parkingArea="P12" duration="180" parking="true"/>
    </trip>
	<trip id="cv_112" depart="595" from="A2" to="E23" type="cv">
        <stop index="0" parkingArea="P23" duration="90" parking="true"/>
    </trip>
	<trip id="cv_113" depart="598" from="A3" to="E30" type="cv">
        <stop index="0" parkingArea="P30" duration="90" parking="true"/>
    </trip>
	<trip id="ncv_114" depart="600" from="A0" to="E01" type="ncv">
        <stop index="0" parkingArea="P01" duration="180" parking="true"/>
    </trip>
	<trip id="ncv_115" depart="600" from="A0" to="E01" type="ncv">
        <stop index="0" parkingArea="P01" duration="180" parking="true"/>
    </trip>
	<trip id="ncv_116" depart="622" from="A1" to="E12" type="ncv">
        <stop index="0" parkingArea="P12" duration="180" parking="true"/>
    </trip>
	<trip id="cv_117" depart="632" from="A3" to="E30" type="cv">
        <stop index="0" parkingArea="P30" duration="90" parking="true"/>
    </trip>
	<trip id="ncv_118" depart="643" from="A2" to="E23" type="ncv">
        <stop index="0" parkingArea="P23" duration="180" parking="true"/>
    </trip>
	<trip id="ncv_119" depart="645" from="A2" to="E23" type="ncv">
        <stop index="0" parkingArea="P23" duration="180" parking="true"/>
    </trip>
	<trip id="ncv_120" depart="658" from="A0" to="E01" type="ncv">
        <stop index="0" parkingArea="P01" duration="180" parking="true"/>
    </trip>
	<trip id="ncv_121" depart="664" from="A3" to="E30" type="ncv">
        <stop index="0" parkingArea="P30" duration="180" parking="true"/>
    </trip>
	<trip id="ncv_122" depart="668" from="A1" to="E12" type="ncv">
        <stop index="0" parkingArea="P12" duration="180" parking="true"/>
    </trip>
	<trip id="ncv_123" depart="676" from="A2" to="E23" type="ncv">
        <stop index="0" parkingArea="P23" duration="180" parking="true"/>
    </trip>
	<trip id="cv_124" depart="680" from="A1" to="E12" type="cv">
        <stop index="0" parkingArea="P12" duration="90" parking="true"/>
    </trip>
	<trip id="ncv_125" depart="689" from="A2" to="E23" type="ncv">
        <stop index="0" parkingArea="P23" duration="180" parking="true"/>
    </trip>
	<trip id="ncv_126" depart="693" from="A3" to="E30" type="ncv">
        <stop index="0" parkingArea="P30" duration="180" parking="true"/>
    </trip>
	<trip id="ncv_127" depart="694" from="A0" to="E01" type="ncv">
        <stop index="0" parkingArea="P01" duration="180" parking="true"/>
    </trip>
	<trip id="ncv_128" depart="709" from="A2" to="E23" type="ncv">
        <stop index="0" parkingArea="P23" duration="180" parking="true"/>
    </trip>
	<trip id="cv_129" depart="711" from="A2" to="E23" type="cv">
        <stop index="0" parkingArea="P23" duration="90" parking="true"/>
    </trip>
	<trip id="cv_130" depart="711" from="A3" to="E30" type="cv">
        <stop index="0" parkingArea="P30" duration="90" parking="true"/>
    </trip>
	<trip id="ncv_131" depart="712" from="A0" to="E01" type="ncv">
        <stop index="0" parkingArea="P01" duration="180" parking="true"/>
    </trip>
	<trip id="ncv_132" depart="724" from="A3" to="E30" type="ncv">
        <stop index="0" parkingArea="P30" duration="180" parking="true"/>
    </trip>
	<trip id="ncv_133" depart="726" from="A0" to="E01" type="ncv">
        <stop index="0" parkingArea="P01" duration="180" parking="true"/>
    </trip>
	<trip id="cv_134" depart="731" from="A3" to="E30" type="cv">
        <stop index="0" parkingArea="P30" duration="90" parking="true"/>
    </trip>
	<trip id="cv_135" depart="734" from="A0" to="E01" type="cv">
        <stop index="0" parkingArea="P01" duration="90" parking="true"/>
    </trip>
	<trip id="cv_136" depart="738" from="A3" to="E30" type="cv">
        <stop index="0" parkingArea="P30" duration="90" parking="true"/>
    </trip>
	<trip id="ncv_137" depart="739" from="A2" to="E23" type="ncv">
        <stop index="0" parkingArea="P23" duration="180" parking="true"/>
    </trip>
	<trip id="ncv_138" depart="741" from="A3" to="E30" type="ncv">
        <stop index="0" parkingArea="P30" duration="180" parking="true"/>
    </trip>
	<trip id="ncv_139" depart="742" from="A1" to="E12" type="ncv">
        <stop index="0" parkingArea="P12" duration="180" parking="true"/>
    </trip>
	<trip id="cv_140" depart="745" from="A3" to="E30" type="cv">
        <stop index="0" parkingArea="P30" duration="90" parking="true"/>
    </trip>
	<trip id="ncv_141" depart="749" from="A2" to="E23" type="ncv">
        <stop index="0" parkingArea="P23" duration="180" parking="true"/>
    </trip>
	<trip id="ncv_142" depart="750" from="A0" to="E01" type="ncv">
        <stop index="0" parkingArea="P01" duration="180" parking="true"/>
    </trip>
	<trip id="ncv_143" depart="760" from="A0" to="E01" type="ncv">
        <stop index="0" parkingArea="P01" duration="180" parking="true"/>
    </trip>
	<trip id="ncv_144" depart="763" from="A1" to="E12" type="ncv">
        <stop index="0" parkingArea="P12" duration="180" parking="true"/>
    </trip>
	<trip id="cv_145" depart="766" from="A2" to="E23" type="cv">
        <stop index="0" parkingArea="P23" duration="90" parking="true"/>
    </trip>
	<trip id="ncv_146" depart="768" from="A2" to="E23" type="ncv">
        <stop index="0" parkingArea="P23" duration="180" parking="true"/>
    </trip>
	<trip id="cv_147" depart="769" from="A3" to="E30" type="cv">
        <stop index="0" parkingArea="P30" duration="90" parking="true"/>
    </trip>
	<trip id="cv_148" depart="775" from="A0" to="E01" type="cv">
        <stop index="0" parkingArea="P01" duration="90" parking="true"/>
    </trip>
	<trip id="ncv_149" depart="777" from="A1" to="E12" type="ncv">
        <stop index="0" parkingArea="P12" duration="180" parking="true"/>
    </trip>
	<trip id="ncv_150" depart="785" from="A1" to="E12" type="ncv">
        <stop index="0" parkingArea="P12" duration="180" parking="true"/>
    </trip>
	<trip id="ncv_151" depart="785" from="A1" to="E12" type="ncv">
        <stop index="0" parkingArea="P12" duration="180" parking="true"/>
    </trip>
	<trip id="cv_152" depart="788" from="A3" to="E30" type="cv">
        <stop index="0" parkingArea="P30" duration="90" parking="true"/>
    </trip>
	<trip id="ncv_153" depart="790" from="A0" to="E01" type="ncv">
        <stop index="0" parkingArea="P01" duration="180" parking="true"/>
    </trip>
	<trip id="cv_154" depart="791" from="A2" to="E23" type="cv">
        <stop index="0" parkingArea="P23" duration="90" parking="true"/>
    </trip>
	<trip id="ncv_155" depart="794" from="A0" to="E01" type="ncv">
        <stop index="0" parkingArea="P01" duration="180" parking="true"/>
    </trip>
	<trip id="ncv_156" depart="797" from="A3" to="E30" type="ncv">
        <stop index="0" parkingArea="P30" duration="180" parking="true"/>
    </trip>
	<trip id="ncv_157" depart="804" from="A2" to="E23" type="ncv">
        <stop index="0" parkingArea="P23" duration="180" parking="true"/>
    </trip>
	<trip id="cv_158" depart="805" from="A3" to="E30" type="cv">
        <stop index="0" parkingArea="P30" duration="90" parking="true"/>
    </trip>
	<trip id="ncv_159" depart="806" from="A3" to="E30" type="ncv">
        <stop index="0" parkingArea="P30" duration="180" parking="true"/>
    </trip>
	<trip id="cv_160" depart="807" from="A0" to="E01" type="cv">
        <stop index="0" parkingArea="P01" duration="90" parking="true"/>
    </trip>
	<trip id="ncv_161" depart="808" from="A3" to="E30" type="ncv">
        <stop index="0" parkingArea="P30" duration="180" parking="true"/>
    </trip>
	<trip id="ncv_162" depart="815" from="A2" to="E23" type="ncv">
        <stop index="0" parkingArea="P23" duration="180" parking="true"/>
    </trip>
	<trip id="cv_163" depart="822" from="A2" to="E23" type="cv">
        <stop index="0" parkingArea="P23" duration="90" parking="true"/>
    </trip>
	<trip id="ncv_164" depart="825" from="A3" to="E30" type="ncv">
        <stop index="0" parkingArea="P30" duration="180" parking="true"/>
    </trip>
	<trip id="ncv_165" depart="827" from="A0" to="E01" type="ncv">
        <stop index="0" parkingArea="P01" duration="180" parking="true"/>
    </trip>
	<trip id="ncv_166" depart="827" from="A2" to="E23" type="ncv">
        <stop index="0" parkingArea="P23" duration="180" parking="true"/>
    </trip>
	<trip id="ncv_167" depart="828" from="A0" to="E01" type="ncv">
        <stop index="0" parkingArea="P01" duration="180" parking="true"/>
    </trip>
	<trip id="ncv_168" depart="835" from="A2" to="E23" type="ncv">
        <stop index="0" parkingArea="P23" duration="180" parking="true"/>
    </trip>
	<trip id="cv_169" depart="838" from="A2" to="E23" type="cv">
        <stop index="0" parkingArea="P23" duration="90" parking="true"/>
    </trip>
	<trip id="ncv_170" depart="847" from="A2" to="E23" type="ncv">
        <stop index="0" parkingArea="P23" duration="180" parking="true"/>
    </trip>
	<trip id="ncv_171" depart="852" from="A0" to="E01" type="ncv">
        <stop index="0" parkingArea="P01" duration="180" parking="true"/>
    </trip>
	<trip id="ncv_172" depart="853" from="A2" to="E23" type="ncv">
        <stop index="0" parkingArea="P23" duration="180" parking="true"/>
    </trip>
	<trip id="ncv_173" depart="858" from="A3" to="E30" type="ncv">
        <stop index="0" parkingArea="P30" duration="180" parking="true"/>
    </trip>
	<trip id="cv_174" depart="868" from="A1" to="E12" type="cv">
        <stop index="0" parkingArea="P12" duration="90" parking="true"/>
    </trip>
	<trip id="ncv_175" depart="869" from="A3" to="E30" type="ncv">
        <stop index="0" parkingArea="P30" duration="180" parking="true"/>
    </trip>
	<trip id="ncv_176" depart="883" from="A1" to="E12" type="ncv">
        <stop index="0" parkingArea="P12" duration="180" parking="true"/>
    </trip>
	<trip id="ncv_177" depart="884" from="A0" to="E01" type="ncv">
        <stop index="0" parkingArea="P01" duration="180" parking="true"/>
    </trip>
	<trip id="cv_178" depart="892" from="A0" to="E01" type="cv">
        <stop index="0" parkingArea="P01" duration="90" parking="true"/>
    </trip>
	<trip id="ncv_179" depart="899" from="A0" to="E01" type="ncv">
        <stop index="0" parkingArea="P01" duration="180" parking="true"/>
    </trip>
	<trip id="ncv_180" depart="901" from="A0" to="E01" type="ncv">
        <stop index="0" parkingArea="P01" duration="180" parking="true"/>
    </trip>
	<trip id="ncv_181" depart="902" from="A1" to="E12" type="ncv">
        <stop index="0" parkingArea="P12" duration="180" parking="true"/>
    </trip>
	<trip id="ncv_182" depart="908" from="A2" to="E23" type="ncv">
        <stop index="0" parkingArea="P23" duration="180" parking="true"/>
    </trip>
	<trip id="ncv_183" depart="913" from="A0" to="E01" type="ncv">
        <stop index="0" parkingArea="P01" duration="180" parking="true"/>
    </trip>
	<trip id="cv_184" depart="920" from="A1" to="E12" type="cv">
        <stop index="0" parkingArea="P12" duration="90" parking="true"/>
    </trip>
	<trip id="ncv_185" depart="922" from="A3" to="E30" type="ncv">
        <stop index="0" parkingArea="P30" duration="180" parking="true"/>
    </trip>
	<trip id="cv_186" depart="926" from="A1" to="E12" type="cv">
        <stop index="0" parkingArea="P12" duration="90" parking="true"/>
    </trip>
	<trip id="ncv_187" depart="926" from="A1" to="E12" type="ncv">
        <stop index="0" parkingArea="P12" duration="180" parking="true"/>
    </trip>
	<trip id="ncv_188" depart="930" from="A0" to="E01" type="ncv">
        <stop index="0" parkingArea="P01" duration="180" parking="true"/>
    </trip>
	<trip id="ncv_189" depart="941" from="A1" to="E12" type="ncv">
        <stop index="0" parkingArea="P12" duration="180" parking="true"/>
    </trip>
	<trip id="cv_190" depart="941" from="A3" to="E30" type="cv">
        <stop index="0" parkingArea="P30" duration="90" parking="true"/>
    </trip>
	<trip id="ncv_191" depart="948" from="A0" to="E01" type="ncv">
        <stop index="0" parkingArea="P01" duration="180" parking="true"/>
    </trip>
	<trip id="ncv_192" depart="951" from="A0" to="E01" type="ncv">
        <stop index="0" parkingArea="P01" duration="180" parking="true"/>
    </trip>
	<trip id="cv_193" depart="952" from="A1" to="E12" type="cv">
        <stop index="0" parkingArea="P12" duration="90" parking="true"/>
    </trip>
	<trip id="ncv_194" depart="963" from="A1" to="E12" type="ncv">
        <stop index="0" parkingArea="P12" duration="180" parking="true"/>
    </trip>
	<trip id="ncv_195" depart="965" from="A1" to="E12" type="ncv">
        <stop index="0" parkingArea="P12" duration="180" parking="true"/>
    </trip>