<?xml version="1.0" encoding="UTF-8"?>
              <routes xmlns:xsi="http://www.w3.org/2001/XMLSchema-instance" xsi:noNamespaceSchemaLocation="http://sumo.dlr.de/xsd/routes_file.xsd">
              
	<vType id="ncv" vClass="passenger" guiShape="passenger/sedan" color="255,183,59"></vType>

    <vType id="f" vClass="passenger" guiShape="passenger/hatchback" color="192,192,192"></vType>

    <vType id="cv" vClass="delivery" guiShape="truck" color="245,39,224"></vType>
          
	<flow id="back" begin="0" end="3700" number="1200" from="E01" to="E30" type="f"/>
	<trip id="ncv_0" depart="100" from="A0" to="E01" type="ncv">
        <stop index="0" parkingArea="P01" duration="120" parking="true"/>
    </trip>
	<trip id="cv_1" depart="100" from="A1" to="E12" type="cv">
        <stop index="0" parkingArea="P12" duration="60" parking="true"/>
    </trip>
	<trip id="ncv_2" depart="101" from="A1" to="E12" type="ncv">
        <stop index="0" parkingArea="P12" duration="120" parking="true"/>
    </trip>
	<trip id="ncv_3" depart="102" from="A3" to="E30" type="ncv">
        <stop index="0" parkingArea="P30" duration="120" parking="true"/>
    </trip>
	<trip id="cv_4" depart="104" from="A0" to="E01" type="cv">
        <stop index="0" parkingArea="P01" duration="60" parking="true"/>
    </trip>
	<trip id="ncv_5" depart="104" from="A2" to="E23" type="ncv">
        <stop index="0" parkingArea="P23" duration="120" parking="true"/>
    </trip>
	<trip id="ncv_6" depart="106" from="A0" to="E01" type="ncv">
        <stop index="0" parkingArea="P01" duration="120" parking="true"/>
    </trip>
	<trip id="ncv_7" depart="107" from="A1" to="E12" type="ncv">
        <stop index="0" parkingArea="P12" duration="120" parking="true"/>
    </trip>
	<trip id="ncv_8" depart="109" from="A0" to="E01" type="ncv">
        <stop index="0" parkingArea="P01" duration="120" parking="true"/>
    </trip>
	<trip id="cv_9" depart="110" from="A3" to="E30" type="cv">
        <stop index="0" parkingArea="P30" duration="60" parking="true"/>
    </trip>
	<trip id="ncv_10" depart="112" from="A2" to="E23" type="ncv">
        <stop index="0" parkingArea="P23" duration="120" parking="true"/>
    </trip>
	<trip id="ncv_11" depart="113" from="A0" to="E01" type="ncv">
        <stop index="0" parkingArea="P01" duration="120" parking="true"/>
    </trip>
	<trip id="cv_12" depart="113" from="A1" to="E12" type="cv">
        <stop index="0" parkingArea="P12" duration="60" parking="true"/>
    </trip>
	<trip id="ncv_13" depart="115" from="A1" to="E12" type="ncv">
        <stop index="0" parkingArea="P12" duration="120" parking="true"/>
    </trip>
	<trip id="cv_14" depart="115" from="A2" to="E23" type="cv">
        <stop index="0" parkingArea="P23" duration="60" parking="true"/>
    </trip>
	<trip id="ncv_15" depart="115" from="A3" to="E30" type="ncv">
        <stop index="0" parkingArea="P30" duration="120" parking="true"/>
    </trip>
	<trip id="cv_16" depart="118" from="A3" to="E30" type="cv">
        <stop index="0" parkingArea="P30" duration="60" parking="true"/>
    </trip>
	<trip id="ncv_17" depart="123" from="A3" to="E30" type="ncv">
        <stop index="0" parkingArea="P30" duration="120" parking="true"/>
    </trip>
	<trip id="cv_18" depart="124" from="A3" to="E30" type="cv">
        <stop index="0" parkingArea="P30" duration="60" parking="true"/>
    </trip>
	<trip id="ncv_19" depart="126" from="A1" to="E12" type="ncv">
        <stop index="0" parkingArea="P12" duration="120" parking="true"/>
    </trip>
	<trip id="cv_20" depart="126" from="A2" to="E23" type="cv">
        <stop index="0" parkingArea="P23" duration="60" parking="true"/>
    </trip>
	<trip id="cv_21" depart="129" from="A1" to="E12" type="cv">
        <stop index="0" parkingArea="P12" duration="60" parking="true"/>
    </trip>
	<trip id="cv_22" depart="129" from="A2" to="E23" type="cv">
        <stop index="0" parkingArea="P23" duration="60" parking="true"/>
    </trip>
	<trip id="ncv_23" depart="131" from="A1" to="E12" type="ncv">
        <stop index="0" parkingArea="P12" duration="120" parking="true"/>
    </trip>
	<trip id="ncv_24" depart="132" from="A0" to="E01" type="ncv">
        <stop index="0" parkingArea="P01" duration="120" parking="true"/>
    </trip>
	<trip id="ncv_25" depart="134" from="A1" to="E12" type="ncv">
        <stop index="0" parkingArea="P12" duration="120" parking="true"/>
    </trip>
	<trip id="ncv_26" depart="136" from="A0" to="E01" type="ncv">
        <stop index="0" parkingArea="P01" duration="120" parking="true"/>
    </trip>
	<trip id="cv_27" depart="137" from="A2" to="E23" type="cv">
        <stop index="0" parkingArea="P23" duration="60" parking="true"/>
    </trip>
	<trip id="ncv_28" depart="137" from="A2" to="E23" type="ncv">
        <stop index="0" parkingArea="P23" duration="120" parking="true"/>
    </trip>
	<trip id="ncv_29" depart="138" from="A2" to="E23" type="ncv">
        <stop index="0" parkingArea="P23" duration="120" parking="true"/>
    </trip>
	<trip id="cv_30" depart="139" from="A1" to="E12" type="cv">
        <stop index="0" parkingArea="P12" duration="60" parking="true"/>
    </trip>
	<trip id="ncv_31" depart="139" from="A2" to="E23" type="ncv">
        <stop index="0" parkingArea="P23" duration="120" parking="true"/>
    </trip>
	<trip id="cv_32" depart="140" from="A1" to="E12" type="cv">
        <stop index="0" parkingArea="P12" duration="60" parking="true"/>
    </trip>
	<trip id="ncv_33" depart="141" from="A1" to="E12" type="ncv">
        <stop index="0" parkingArea="P12" duration="120" parking="true"/>
    </trip>
	<trip id="cv_34" depart="144" from="A3" to="E30" type="cv">
        <stop index="0" parkingArea="P30" duration="60" parking="true"/>
    </trip>
	<trip id="cv_35" depart="150" from="A0" to="E01" type="cv">
        <stop index="0" parkingArea="P01" duration="60" parking="true"/>
    </trip>
	<trip id="ncv_36" depart="150" from="A2" to="E23" type="ncv">
        <stop index="0" parkingArea="P23" duration="120" parking="true"/>
    </trip>
	<trip id="cv_37" depart="151" from="A2" to="E23" type="cv">
        <stop index="0" parkingArea="P23" duration="60" parking="true"/>
    </trip>
	<trip id="cv_38" depart="154" from="A0" to="E01" type="cv">
        <stop index="0" parkingArea="P01" duration="60" parking="true"/>
    </trip>
	<trip id="ncv_39" depart="155" from="A2" to="E23" type="ncv">
        <stop index="0" parkingArea="P23" duration="120" parking="true"/>
    </trip>
	<trip id="ncv_40" depart="155" from="A3" to="E30" type="ncv">
        <stop index="0" parkingArea="P30" duration="120" parking="true"/>
    </trip>
	<trip id="ncv_41" depart="155" from="A3" to="E30" type="ncv">
        <stop index="0" parkingArea="P30" duration="120" parking="true"/>
    </trip>
	<trip id="cv_42" depart="157" from="A0" to="E01" type="cv">
        <stop index="0" parkingArea="P01" duration="60" parking="true"/>
    </trip>
	<trip id="ncv_43" depart="158" from="A0" to="E01" type="ncv">
        <stop index="0" parkingArea="P01" duration="120" parking="true"/>
    </trip>
	<trip id="ncv_44" depart="160" from="A0" to="E01" type="ncv">
        <stop index="0" parkingArea="P01" duration="120" parking="true"/>
    </trip>
	<trip id="ncv_45" depart="160" from="A2" to="E23" type="ncv">
        <stop index="0" parkingArea="P23" duration="120" parking="true"/>
    </trip>
	<trip id="cv_46" depart="162" from="A1" to="E12" type="cv">
        <stop index="0" parkingArea="P12" duration="60" parking="true"/>
    </trip>
	<trip id="cv_47" depart="163" from="A2" to="E23" type="cv">
        <stop index="0" parkingArea="P23" duration="60" parking="true"/>
    </trip>
	<trip id="cv_48" depart="164" from="A3" to="E30" type="cv">
        <stop index="0" parkingArea="P30" duration="60" parking="true"/>
    </trip>
	<trip id="cv_49" depart="166" from="A0" to="E01" type="cv">
        <stop index="0" parkingArea="P01" duration="60" parking="true"/>
    </trip>
	<trip id="cv_50" depart="167" from="A2" to="E23" type="cv">
        <stop index="0" parkingArea="P23" duration="60" parking="true"/>
    </trip>
	<trip id="ncv_51" depart="169" from="A2" to="E23" type="ncv">
        <stop index="0" parkingArea="P23" duration="120" parking="true"/>
    </trip>
	<trip id="ncv_52" depart="176" from="A0" to="E01" type="ncv">
        <stop index="0" parkingArea="P01" duration="120" parking="true"/>
    </trip>
	<trip id="cv_53" depart="178" from="A3" to="E30" type="cv">
        <stop index="0" parkingArea="P30" duration="60" parking="true"/>
    </trip>
	<trip id="cv_54" depart="178" from="A3" to="E30" type="cv">
        <stop index="0" parkingArea="P30" duration="60" parking="true"/>
    </trip>
	<trip id="ncv_55" depart="179" from="A3" to="E30" type="ncv">
        <stop index="0" parkingArea="P30" duration="120" parking="true"/>
    </trip>
	<trip id="cv_56" depart="182" from="A1" to="E12" type="cv">
        <stop index="0" parkingArea="P12" duration="60" parking="true"/>
    </trip>
	<trip id="cv_57" depart="183" from="A1" to="E12" type="cv">
        <stop index="0" parkingArea="P12" duration="60" parking="true"/>
    </trip>
	<trip id="ncv_58" depart="184" from="A1" to="E12" type="ncv">
        <stop index="0" parkingArea="P12" duration="120" parking="true"/>
    </trip>
	<trip id="ncv_59" depart="184" from="A2" to="E23" type="ncv">
        <stop index="0" parkingArea="P23" duration="120" parking="true"/>
    </trip>
	<trip id="ncv_60" depart="187" from="A3" to="E30" type="ncv">
        <stop index="0" parkingArea="P30" duration="120" parking="true"/>
    </trip>
	<trip id="cv_61" depart="188" from="A0" to="E01" type="cv">
        <stop index="0" parkingArea="P01" duration="60" parking="true"/>
    </trip>
	<trip id="ncv_62" depart="188" from="A1" to="E12" type="ncv">
        <stop index="0" parkingArea="P12" duration="120" parking="true"/>
    </trip>
	<trip id="ncv_63" depart="188" from="A3" to="E30" type="ncv">
        <stop index="0" parkingArea="P30" duration="120" parking="true"/>
    </trip>
	<trip id="ncv_64" depart="189" from="A0" to="E01" type="ncv">
        <stop index="0" parkingArea="P01" duration="120" parking="true"/>
    </trip>
	<trip id="ncv_65" depart="190" from="A2" to="E23" type="ncv">
        <stop index="0" parkingArea="P23" duration="120" parking="true"/>
    </trip>
	<trip id="ncv_66" depart="190" from="A2" to="E23" type="ncv">
        <stop index="0" parkingArea="P23" duration="120" parking="true"/>
    </trip>
	<trip id="cv_67" depart="193" from="A0" to="E01" type="cv">
        <stop index="0" parkingArea="P01" duration="60" parking="true"/>
    </trip>
	<trip id="cv_68" depart="193" from="A3" to="E30" type="cv">
        <stop index="0" parkingArea="P30" duration="60" parking="true"/>
    </trip>
	<trip id="ncv_69" depart="197" from="A3" to="E30" type="ncv">
        <stop index="0" parkingArea="P30" duration="120" parking="true"/>
    </trip>
	<trip id="cv_70" depart="199" from="A3" to="E30" type="cv">
        <stop index="0" parkingArea="P30" duration="60" parking="true"/>
    </trip>
	<trip id="cv_71" depart="200" from="A1" to="E12" type="cv">
        <stop index="0" parkingArea="P12" duration="60" parking="true"/>
    </trip>
	<trip id="ncv_72" depart="200" from="A2" to="E23" type="ncv">
        <stop index="0" parkingArea="P23" duration="120" parking="true"/>
    </trip>
	<trip id="cv_73" depart="203" from="A2" to="E23" type="cv">
        <stop index="0" parkingArea="P23" duration="60" parking="true"/>
    </trip>
	<trip id="cv_74" depart="203" from="A3" to="E30" type="cv">
        <stop index="0" parkingArea="P30" duration="60" parking="true"/>
    </trip>
	<trip id="ncv_75" depart="203" from="A3" to="E30" type="ncv">
        <stop index="0" parkingArea="P30" duration="120" parking="true"/>
    </trip>
	<trip id="ncv_76" depart="204" from="A1" to="E12" type="ncv">
        <stop index="0" parkingArea="P12" duration="120" parking="true"/>
    </trip>
	<trip id="cv_77" depart="206" from="A2" to="E23" type="cv">
        <stop index="0" parkingArea="P23" duration="60" parking="true"/>
    </trip>
	<trip id="ncv_78" depart="207" from="A3" to="E30" type="ncv">
        <stop index="0" parkingArea="P30" duration="120" parking="true"/>
    </trip>
	<trip id="ncv_79" depart="208" from="A3" to="E30" type="ncv">
        <stop index="0" parkingArea="P30" duration="120" parking="true"/>
    </trip>
	<trip id="cv_80" depart="209" from="A0" to="E01" type="cv">
        <stop index="0" parkingArea="P01" duration="60" parking="true"/>
    </trip>
	<trip id="cv_81" depart="209" from="A1" to="E12" type="cv">
        <stop index="0" parkingArea="P12" duration="60" parking="true"/>
    </trip>
	<trip id="ncv_82" depart="209" from="A3" to="E30" type="ncv">
        <stop index="0" parkingArea="P30" duration="120" parking="true"/>
    </trip>
	<trip id="ncv_83" depart="211" from="A2" to="E23" type="ncv">
        <stop index="0" parkingArea="P23" duration="120" parking="true"/>
    </trip>
	<trip id="ncv_84" depart="213" from="A0" to="E01" type="ncv">
        <stop index="0" parkingArea="P01" duration="120" parking="true"/>
    </trip>
	<trip id="ncv_85" depart="213" from="A3" to="E30" type="ncv">
        <stop index="0" parkingArea="P30" duration="120" parking="true"/>
    </trip>
	<trip id="ncv_86" depart="214" from="A1" to="E12" type="ncv">
        <stop index="0" parkingArea="P12" duration="120" parking="true"/>
    </trip>
	<trip id="cv_87" depart="218" from="A2" to="E23" type="cv">
        <stop index="0" parkingArea="P23" duration="60" parking="true"/>
    </trip>
	<trip id="cv_88" depart="220" from="A1" to="E12" type="cv">
        <stop index="0" parkingArea="P12" duration="60" parking="true"/>
    </trip>
	<trip id="ncv_89" depart="221" from="A3" to="E30" type="ncv">
        <stop index="0" parkingArea="P30" duration="120" parking="true"/>
    </trip>
	<trip id="cv_90" depart="223" from="A1" to="E12" type="cv">
        <stop index="0" parkingArea="P12" duration="60" parking="true"/>
    </trip>
	<trip id="cv_91" depart="223" from="A3" to="E30" type="cv">
        <stop index="0" parkingArea="P30" duration="60" parking="true"/>
    </trip>
	<trip id="cv_92" depart="225" from="A1" to="E12" type="cv">
        <stop index="0" parkingArea="P12" duration="60" parking="true"/>
    </trip>
	<trip id="cv_93" depart="225" from="A3" to="E30" type="cv">
        <stop index="0" parkingArea="P30" duration="60" parking="true"/>
    </trip>
	<trip id="ncv_94" depart="227" from="A3" to="E30" type="ncv">
        <stop index="0" parkingArea="P30" duration="120" parking="true"/>
    </trip>
	<trip id="ncv_95" depart="229" from="A0" to="E01" type="ncv">
        <stop index="0" parkingArea="P01" duration="120" parking="true"/>
    </trip>
	<trip id="cv_96" depart="232" from="A1" to="E12" type="cv">
        <stop index="0" parkingArea="P12" duration="60" parking="true"/>
    </trip>
	<trip id="cv_97" depart="235" from="A0" to="E01" type="cv">
        <stop index="0" parkingArea="P01" duration="60" parking="true"/>
    </trip>
	<trip id="ncv_98" depart="235" from="A3" to="E30" type="ncv">
        <stop index="0" parkingArea="P30" duration="120" parking="true"/>
    </trip>
	<trip id="cv_99" depart="236" from="A2" to="E23" type="cv">
        <stop index="0" parkingArea="P23" duration="60" parking="true"/>
    </trip>
	<trip id="cv_100" depart="237" from="A1" to="E12" type="cv">
        <stop index="0" parkingArea="P12" duration="60" parking="true"/>
    </trip>
	<trip id="cv_101" depart="238" from="A3" to="E30" type="cv">
        <stop index="0" parkingArea="P30" duration="60" parking="true"/>
    </trip>
	<trip id="ncv_102" depart="240" from="A2" to="E23" type="ncv">
        <stop index="0" parkingArea="P23" duration="120" parking="true"/>
    </trip>
	<trip id="ncv_103" depart="242" from="A3" to="E30" type="ncv">
        <stop index="0" parkingArea="P30" duration="120" parking="true"/>
    </trip>
	<trip id="ncv_104" depart="243" from="A2" to="E23" type="ncv">
        <stop index="0" parkingArea="P23" duration="120" parking="true"/>
    </trip>
	<trip id="cv_105" depart="244" from="A1" to="E12" type="cv">
        <stop index="0" parkingArea="P12" duration="60" parking="true"/>
    </trip>
	<trip id="cv_106" depart="245" from="A1" to="E12" type="cv">
        <stop index="0" parkingArea="P12" duration="60" parking="true"/>
    </trip>
	<trip id="ncv_107" depart="245" from="A1" to="E12" type="ncv">
        <stop index="0" parkingArea="P12" duration="120" parking="true"/>
    </trip>
	<trip id="ncv_108" depart="246" from="A0" to="E01" type="ncv">
        <stop index="0" parkingArea="P01" duration="120" parking="true"/>
    </trip>
	<trip id="cv_109" depart="247" from="A1" to="E12" type="cv">
        <stop index="0" parkingArea="P12" duration="60" parking="true"/>
    </trip>
	<trip id="ncv_110" depart="248" from="A2" to="E23" type="ncv">
        <stop index="0" parkingArea="P23" duration="120" parking="true"/>
    </trip>
	<trip id="cv_111" depart="248" from="A3" to="E30" type="cv">
        <stop index="0" parkingArea="P30" duration="60" parking="true"/>
    </trip>
	<trip id="cv_112" depart="249" from="A0" to="E01" type="cv">
        <stop index="0" parkingArea="P01" duration="60" parking="true"/>
    </trip>
	<trip id="ncv_113" depart="250" from="A3" to="E30" type="ncv">
        <stop index="0" parkingArea="P30" duration="120" parking="true"/>
    </trip>
	<trip id="ncv_114" depart="254" from="A0" to="E01" type="ncv">
        <stop index="0" parkingArea="P01" duration="120" parking="true"/>
    </trip>
	<trip id="cv_115" depart="256" from="A1" to="E12" type="cv">
        <stop index="0" parkingArea="P12" duration="60" parking="true"/>
    </trip>
	<trip id="ncv_116" depart="256" from="A2" to="E23" type="ncv">
        <stop index="0" parkingArea="P23" duration="120" parking="true"/>
    </trip>
	<trip id="ncv_117" depart="256" from="A2" to="E23" type="ncv">
        <stop index="0" parkingArea="P23" duration="120" parking="true"/>
    </trip>
	<trip id="ncv_118" depart="256" from="A3" to="E30" type="ncv">
        <stop index="0" parkingArea="P30" duration="120" parking="true"/>
    </trip>
	<trip id="cv_119" depart="257" from="A3" to="E30" type="cv">
        <stop index="0" parkingArea="P30" duration="60" parking="true"/>
    </trip>
	<trip id="cv_120" depart="258" from="A0" to="E01" type="cv">
        <stop index="0" parkingArea="P01" duration="60" parking="true"/>
    </trip>
	<trip id="cv_121" depart="258" from="A3" to="E30" type="cv">
        <stop index="0" parkingArea="P30" duration="60" parking="true"/>
    </trip>
	<trip id="ncv_122" depart="259" from="A0" to="E01" type="ncv">
        <stop index="0" parkingArea="P01" duration="120" parking="true"/>
    </trip>
	<trip id="cv_123" depart="261" from="A0" to="E01" type="cv">
        <stop index="0" parkingArea="P01" duration="60" parking="true"/>
    </trip>
	<trip id="cv_124" depart="261" from="A1" to="E12" type="cv">
        <stop index="0" parkingArea="P12" duration="60" parking="true"/>
    </trip>
	<trip id="cv_125" depart="261" from="A2" to="E23" type="cv">
        <stop index="0" parkingArea="P23" duration="60" parking="true"/>
    </trip>
	<trip id="cv_126" depart="263" from="A1" to="E12" type="cv">
        <stop index="0" parkingArea="P12" duration="60" parking="true"/>
    </trip>
	<trip id="ncv_127" depart="264" from="A2" to="E23" type="ncv">
        <stop index="0" parkingArea="P23" duration="120" parking="true"/>
    </trip>
	<trip id="cv_128" depart="265" from="A0" to="E01" type="cv">
        <stop index="0" parkingArea="P01" duration="60" parking="true"/>
    </trip>
	<trip id="ncv_129" depart="265" from="A3" to="E30" type="ncv">
        <stop index="0" parkingArea="P30" duration="120" parking="true"/>
    </trip>
	<trip id="ncv_130" depart="266" from="A0" to="E01" type="ncv">
        <stop index="0" parkingArea="P01" duration="120" parking="true"/>
    </trip>
	<trip id="cv_131" depart="266" from="A1" to="E12" type="cv">
        <stop index="0" parkingArea="P12" duration="60" parking="true"/>
    </trip>
	<trip id="ncv_132" depart="266" from="A1" to="E12" type="ncv">
        <stop index="0" parkingArea="P12" duration="120" parking="true"/>
    </trip>
	<trip id="ncv_133" depart="268" from="A0" to="E01" type="ncv">
        <stop index="0" parkingArea="P01" duration="120" parking="true"/>
    </trip>
	<trip id="ncv_134" depart="268" from="A1" to="E12" type="ncv">
        <stop index="0" parkingArea="P12" duration="120" parking="true"/>
    </trip>
	<trip id="ncv_135" depart="269" from="A3" to="E30" type="ncv">
        <stop index="0" parkingArea="P30" duration="120" parking="true"/>
    </trip>
	<trip id="cv_136" depart="270" from="A3" to="E30" type="cv">
        <stop index="0" parkingArea="P30" duration="60" parking="true"/>
    </trip>
	<trip id="ncv_137" depart="271" from="A2" to="E23" type="ncv">
        <stop index="0" parkingArea="P23" duration="120" parking="true"/>
    </trip>
	<trip id="ncv_138" depart="272" from="A0" to="E01" type="ncv">
        <stop index="0" parkingArea="P01" duration="120" parking="true"/>
    </trip>
	<trip id="ncv_139" depart="272" from="A0" to="E01" type="ncv">
        <stop index="0" parkingArea="P01" duration="120" parking="true"/>
    </trip>
	<trip id="cv_140" depart="272" from="A2" to="E23" type="cv">
        <stop index="0" parkingArea="P23" duration="60" parking="true"/>
    </trip>
	<trip id="ncv_141" depart="273" from="A0" to="E01" type="ncv">
        <stop index="0" parkingArea="P01" duration="120" parking="true"/>
    </trip>
	<trip id="cv_142" depart="276" from="A3" to="E30" type="cv">
        <stop index="0" parkingArea="P30" duration="60" parking="true"/>
    </trip>
	<trip id="ncv_143" depart="278" from="A2" to="E23" type="ncv">
        <stop index="0" parkingArea="P23" duration="120" parking="true"/>
    </trip>
	<trip id="cv_144" depart="278" from="A3" to="E30" type="cv">
        <stop index="0" parkingArea="P30" duration="60" parking="true"/>
    </trip>
	<trip id="cv_145" depart="279" from="A2" to="E23" type="cv">
        <stop index="0" parkingArea="P23" duration="60" parking="true"/>
    </trip>
	<trip id="cv_146" depart="280" from="A3" to="E30" type="cv">
        <stop index="0" parkingArea="P30" duration="60" parking="true"/>
    </trip>
	<trip id="ncv_147" depart="280" from="A3" to="E30" type="ncv">
        <stop index="0" parkingArea="P30" duration="120" parking="true"/>
    </trip>
	<trip id="cv_148" depart="281" from="A2" to="E23" type="cv">
        <stop index="0" parkingArea="P23" duration="60" parking="true"/>
    </trip>
	<trip id="cv_149" depart="282" from="A1" to="E12" type="cv">
        <stop index="0" parkingArea="P12" duration="60" parking="true"/>
    </trip>
	<trip id="cv_150" depart="282" from="A2" to="E23" type="cv">
        <stop index="0" parkingArea="P23" duration="60" parking="true"/>
    </trip>
	<trip id="ncv_151" depart="284" from="A2" to="E23" type="ncv">
        <stop index="0" parkingArea="P23" duration="120" parking="true"/>
    </trip>
	<trip id="cv_152" depart="285" from="A0" to="E01" type="cv">
        <stop index="0" parkingArea="P01" duration="60" parking="true"/>
    </trip>
	<trip id="cv_153" depart="287" from="A0" to="E01" type="cv">
        <stop index="0" parkingArea="P01" duration="60" parking="true"/>
    </trip>
	<trip id="ncv_154" depart="289" from="A1" to="E12" type="ncv">
        <stop index="0" parkingArea="P12" duration="120" parking="true"/>
    </trip>
	<trip id="ncv_155" depart="291" from="A0" to="E01" type="ncv">
        <stop index="0" parkingArea="P01" duration="120" parking="true"/>
    </trip>
	<trip id="cv_156" depart="291" from="A3" to="E30" type="cv">
        <stop index="0" parkingArea="P30" duration="60" parking="true"/>
    </trip>
	<trip id="cv_157" depart="292" from="A1" to="E12" type="cv">
        <stop index="0" parkingArea="P12" duration="60" parking="true"/>
    </trip>
	<trip id="ncv_158" depart="293" from="A3" to="E30" type="ncv">
        <stop index="0" parkingArea="P30" duration="120" parking="true"/>
    </trip>
	<trip id="cv_159" depart="294" from="A2" to="E23" type="cv">
        <stop index="0" parkingArea="P23" duration="60" parking="true"/>
    </trip>
	<trip id="ncv_160" depart="297" from="A0" to="E01" type="ncv">
        <stop index="0" parkingArea="P01" duration="120" parking="true"/>
    </trip>
	<trip id="ncv_161" depart="299" from="A3" to="E30" type="ncv">
        <stop index="0" parkingArea="P30" duration="120" parking="true"/>
    </trip>
	<trip id="cv_162" depart="303" from="A2" to="E23" type="cv">
        <stop index="0" parkingArea="P23" duration="60" parking="true"/>
    </trip>
	<trip id="cv_163" depart="303" from="A2" to="E23" type="cv">
        <stop index="0" parkingArea="P23" duration="60" parking="true"/>
    </trip>
	<trip id="ncv_164" depart="304" from="A0" to="E01" type="ncv">
        <stop index="0" parkingArea="P01" duration="120" parking="true"/>
    </trip>
	<trip id="ncv_165" depart="309" from="A2" to="E23" type="ncv">
        <stop index="0" parkingArea="P23" duration="120" parking="true"/>
    </trip>
	<trip id="ncv_166" depart="309" from="A2" to="E23" type="ncv">
        <stop index="0" parkingArea="P23" duration="120" parking="true"/>
    </trip>
	<trip id="ncv_167" depart="311" from="A3" to="E30" type="ncv">
        <stop index="0" parkingArea="P30" duration="120" parking="true"/>
    </trip>
	<trip id="cv_168" depart="313" from="A3" to="E30" type="cv">
        <stop index="0" parkingArea="P30" duration="60" parking="true"/>
    </trip>
	<trip id="ncv_169" depart="314" from="A1" to="E12" type="ncv">
        <stop index="0" parkingArea="P12" duration="120" parking="true"/>
    </trip>
	<trip id="cv_170" depart="315" from="A2" to="E23" type="cv">
        <stop index="0" parkingArea="P23" duration="60" parking="true"/>
    </trip>
	<trip id="cv_171" depart="320" from="A2" to="E23" type="cv">
        <stop index="0" parkingArea="P23" duration="60" parking="true"/>
    </trip>
	<trip id="ncv_172" depart="320" from="A3" to="E30" type="ncv">
        <stop index="0" parkingArea="P30" duration="120" parking="true"/>
    </trip>
	<trip id="cv_173" depart="321" from="A3" to="E30" type="cv">
        <stop index="0" parkingArea="P30" duration="60" parking="true"/>
    </trip>
	<trip id="cv_174" depart="327" from="A1" to="E12" type="cv">
        <stop index="0" parkingArea="P12" duration="60" parking="true"/>
    </trip>
	<trip id="cv_175" depart="333" from="A2" to="E23" type="cv">
        <stop index="0" parkingArea="P23" duration="60" parking="true"/>
    </trip>
	<trip id="cv_176" depart="334" from="A3" to="E30" type="cv">
        <stop index="0" parkingArea="P30" duration="60" parking="true"/>
    </trip>
	<trip id="ncv_177" depart="336" from="A1" to="E12" type="ncv">
        <stop index="0" parkingArea="P12" duration="120" parking="true"/>
    </trip>
	<trip id="cv_178" depart="337" from="A0" to="E01" type="cv">
        <stop index="0" parkingArea="P01" duration="60" parking="true"/>
    </trip>
	<trip id="ncv_179" depart="338" from="A2" to="E23" type="ncv">
        <stop index="0" parkingArea="P23" duration="120" parking="true"/>
    </trip>
	<trip id="ncv_180" depart="342" from="A2" to="E23" type="ncv">
        <stop index="0" parkingArea="P23" duration="120" parking="true"/>
    </trip>
	<trip id="cv_181" depart="345" from="A3" to="E30" type="cv">
        <stop index="0" parkingArea="P30" duration="60" parking="true"/>
    </trip>
	<trip id="cv_182" depart="346" from="A1" to="E12" type="cv">
        <stop index="0" parkingArea="P12" duration="60" parking="true"/>
    </trip>
	<trip id="ncv_183" depart="346" from="A1" to="E12" type="ncv">
        <stop index="0" parkingArea="P12" duration="120" parking="true"/>
    </trip>
	<trip id="cv_184" depart="350" from="A0" to="E01" type="cv">
        <stop index="0" parkingArea="P01" duration="60" parking="true"/>
    </trip>
	<trip id="cv_185" depart="350" from="A0" to="E01" type="cv">
        <stop index="0" parkingArea="P01" duration="60" parking="true"/>
    </trip>
	<trip id="ncv_186" depart="350" from="A0" to="E01" type="ncv">
        <stop index="0" parkingArea="P01" duration="120" parking="true"/>
    </trip>
	<trip id="ncv_187" depart="351" from="A2" to="E23" type="ncv">
        <stop index="0" parkingArea="P23" duration="120" parking="true"/>
    </trip>
	<trip id="cv_188" depart="354" from="A0" to="E01" type="cv">
        <stop index="0" parkingArea="P01" duration="60" parking="true"/>
    </trip>
	<trip id="cv_189" depart="354" from="A3" to="E30" type="cv">
        <stop index="0" parkingArea="P30" duration="60" parking="true"/>
    </trip>
	<trip id="cv_190" depart="355" from="A0" to="E01" type="cv">
        <stop index="0" parkingArea="P01" duration="60" parking="true"/>
    </trip>
	<trip id="cv_191" depart="355" from="A1" to="E12" type="cv">
        <stop index="0" parkingArea="P12" duration="60" parking="true"/>
    </trip>
	<trip id="ncv_192" depart="355" from="A2" to="E23" type="ncv">
        <stop index="0" parkingArea="P23" duration="120" parking="true"/>
    </trip>
	<trip id="cv_193" depart="357" from="A0" to="E01" type="cv">
        <stop index="0" parkingArea="P01" duration="60" parking="true"/>
    </trip>
	<trip id="cv_194" depart="357" from="A1" to="E12" type="cv">
        <stop index="0" parkingArea="P12" duration="60" parking="true"/>
    </trip>
	<trip id="ncv_195" depart="359" from="A2" to="E23" type="ncv">
        <stop index="0" parkingArea="P23" duration="120" parking="true"/>
    </trip>
	<trip id="cv_196" depart="360" from="A2" to="E23" type="cv">
        <stop index="0" parkingArea="P23" duration="60" parking="true"/>
    </trip>
	<trip id="ncv_197" depart="361" from="A0" to="E01" type="ncv">
        <stop index="0" parkingArea="P01" duration="120" parking="true"/>
    </trip>
	<trip id="ncv_198" depart="361" from="A0" to="E01" type="ncv">