<?xml version="1.0" encoding="UTF-8"?>
              <routes xmlns:xsi="http://www.w3.org/2001/XMLSchema-instance" xsi:noNamespaceSchemaLocation="http://sumo.dlr.de/xsd/routes_file.xsd">
              
	<vType id="ncv" vClass="passenger" guiShape="passenger/sedan" color="255,183,59"></vType>

    <vType id="f" vClass="passenger" guiShape="passenger/hatchback" color="192,192,192"></vType>

    <vType id="cv" vClass="passenger" guiShape="evehicle" color="245,39,224"></vType>
          
	<flow id="back_0" begin="0" end="3700" number="0" from="A0" to="E30" type="f"/>
	<flow id="back_1" begin="0" end="3700" number="0" from="A1" to="E01" type="f"/>
	<flow id="back_2" begin="0" end="3700" number="0" from="A2" to="E12" type="f"/>
	<flow id="back_3" begin="0" end="3700" number="0" from="A3" to="E23" type="f"/>
	<trip id="ncv_0" depart="106" from="A0" to="E01" type="ncv">
        <stop index="0" parkingArea="P01" duration="180" parking="true"/>
    </trip>
	<trip id="cv_1" depart="108" from="A0" to="E01" type="cv">
        <stop index="0" parkingArea="P01" duration="90" parking="true"/>
    </trip>
	<trip id="ncv_2" depart="123" from="A0" to="E01" type="ncv">
        <stop index="0" parkingArea="P01" duration="180" parking="true"/>
    </trip>
	<trip id="cv_3" depart="130" from="A3" to="E30" type="cv">
        <stop index="0" parkingArea="P30" duration="90" parking="true"/>
    </trip>
	<trip id="cv_4" depart="134" from="A1" to="E12" type="cv">
        <stop index="0" parkingArea="P12" duration="90" parking="true"/>
    </trip>
	<trip id="cv_5" depart="137" from="A0" to="E01" type="cv">
        <stop index="0" parkingArea="P01" duration="90" parking="true"/>
    </trip>
	<trip id="ncv_6" depart="140" from="A2" to="E23" type="ncv">
        <stop index="0" parkingArea="P23" duration="180" parking="true"/>
    </trip>
	<trip id="cv_7" depart="143" from="A2" to="E23" type="cv">
        <stop index="0" parkingArea="P23" duration="90" parking="true"/>
    </trip>
	<trip id="cv_8" depart="144" from="A3" to="E30" type="cv">
        <stop index="0" parkingArea="P30" duration="90" parking="true"/>
    </trip>
	<trip id="ncv_9" depart="150" from="A0" to="E01" type="ncv">
        <stop index="0" parkingArea="P01" duration="180" parking="true"/>
    </trip>
	<trip id="cv_10" depart="150" from="A2" to="E23" type="cv">
        <stop index="0" parkingArea="P23" duration="90" parking="true"/>
    </trip>
	<trip id="cv_11" depart="159" from="A1" to="E12" type="cv">
        <stop index="0" parkingArea="P12" duration="90" parking="true"/>
    </trip>
	<trip id="cv_12" depart="159" from="A2" to="E23" type="cv">
        <stop index="0" parkingArea="P23" duration="90" parking="true"/>
    </trip>
	<trip id="cv_13" depart="168" from="A1" to="E12" type="cv">
        <stop index="0" parkingArea="P12" duration="90" parking="true"/>
    </trip>
	<trip id="ncv_14" depart="170" from="A1" to="E12" type="ncv">
        <stop index="0" parkingArea="P12" duration="180" parking="true"/>
    </trip>
	<trip id="cv_15" depart="173" from="A1" to="E12" type="cv">
        <stop index="0" parkingArea="P12" duration="90" parking="true"/>
    </trip>
	<trip id="ncv_16" depart="174" from="A1" to="E12" type="ncv">
        <stop index="0" parkingArea="P12" duration="180" parking="true"/>
    </trip>
	<trip id="cv_17" depart="177" from="A3" to="E30" type="cv">
        <stop index="0" parkingArea="P30" duration="90" parking="true"/>
    </trip>
	<trip id="ncv_18" depart="183" from="A2" to="E23" type="ncv">
        <stop index="0" parkingArea="P23" duration="180" parking="true"/>
    </trip>
	<trip id="cv_19" depart="185" from="A1" to="E12" type="cv">
        <stop index="0" parkingArea="P12" duration="90" parking="true"/>
    </trip>
	<trip id="cv_20" depart="188" from="A0" to="E01" type="cv">
        <stop index="0" parkingArea="P01" duration="90" parking="true"/>
    </trip>
	<trip id="ncv_21" depart="188" from="A2" to="E23" type="ncv">
        <stop index="0" parkingArea="P23" duration="180" parking="true"/>
    </trip>
	<trip id="cv_22" depart="191" from="A0" to="E01" type="cv">
        <stop index="0" parkingArea="P01" duration="90" parking="true"/>
    </trip>
	<trip id="cv_23" depart="196" from="A1" to="E12" type="cv">
        <stop index="0" parkingArea="P12" duration="90" parking="true"/>
    </trip>
	<trip id="cv_24" depart="199" from="A3" to="E30" type="cv">
        <stop index="0" parkingArea="P30" duration="90" parking="true"/>
    </trip>
	<trip id="cv_25" depart="204" from="A0" to="E01" type="cv">
        <stop index="0" parkingArea="P01" duration="90" parking="true"/>
    </trip>
	<trip id="cv_26" depart="211" from="A2" to="E23" type="cv">
        <stop index="0" parkingArea="P23" duration="90" parking="true"/>
    </trip>
	<trip id="ncv_27" depart="214" from="A0" to="E01" type="ncv">
        <stop index="0" parkingArea="P01" duration="180" parking="true"/>
    </trip>
	<trip id="cv_28" depart="216" from="A0" to="E01" type="cv">
        <stop index="0" parkingArea="P01" duration="90" parking="true"/>
    </trip>
	<trip id="cv_29" depart="218" from="A0" to="E01" type="cv">
        <stop index="0" parkingArea="P01" duration="90" parking="true"/>
    </trip>
	<trip id="cv_30" depart="221" from="A0" to="E01" type="cv">
        <stop index="0" parkingArea="P01" duration="90" parking="true"/>
    </trip>
	<trip id="cv_31" depart="225" from="A0" to="E01" type="cv">
        <stop index="0" parkingArea="P01" duration="90" parking="true"/>
    </trip>
	<trip id="cv_32" depart="225" from="A1" to="E12" type="cv">
        <stop index="0" parkingArea="P12" duration="90" parking="true"/>
    </trip>
	<trip id="cv_33" depart="230" from="A3" to="E30" type="cv">
        <stop index="0" parkingArea="P30" duration="90" parking="true"/>
    </trip>
	<trip id="cv_34" depart="232" from="A1" to="E12" type="cv">
        <stop index="0" parkingArea="P12" duration="90" parking="true"/>
    </trip>
	<trip id="cv_35" depart="241" from="A0" to="E01" type="cv">
        <stop index="0" parkingArea="P01" duration="90" parking="true"/>
    </trip>
	<trip id="cv_36" depart="244" from="A1" to="E12" type="cv">
        <stop index="0" parkingArea="P12" duration="90" parking="true"/>
    </trip>
	<trip id="cv_37" depart="253" from="A1" to="E12" type="cv">
        <stop index="0" parkingArea="P12" duration="90" parking="true"/>
    </trip>
	<trip id="cv_38" depart="255" from="A1" to="E12" type="cv">
        <stop index="0" parkingArea="P12" duration="90" parking="true"/>
    </trip>
	<trip id="cv_39" depart="260" from="A2" to="E23" type="cv">
        <stop index="0" parkingArea="P23" duration="90" parking="true"/>
    </trip>
	<trip id="cv_40" depart="262" from="A2" to="E23" type="cv">
        <stop index="0" parkingArea="P23" duration="90" parking="true"/>
    </trip>
	<trip id="cv_41" depart="263" from="A2" to="E23" type="cv">
        <stop index="0" parkingArea="P23" duration="90" parking="true"/>
    </trip>
	<trip id="ncv_42" depart="265" from="A1" to="E12" type="ncv">
        <stop index="0" parkingArea="P12" duration="180" parking="true"/>
    </trip>
	<trip id="ncv_43" depart="266" from="A3" to="E30" type="ncv">
        <stop index="0" parkingArea="P30" duration="180" parking="true"/>
    </trip>
	<trip id="ncv_44" depart="268" from="A2" to="E23" type="ncv">
        <stop index="0" parkingArea="P23" duration="180" parking="true"/>
    </trip>
	<trip id="cv_45" depart="278" from="A0" to="E01" type="cv">
        <stop index="0" parkingArea="P01" duration="90" parking="true"/>
    </trip>
	<trip id="cv_46" depart="287" from="A2" to="E23" type="cv">
        <stop index="0" parkingArea="P23" duration="90" parking="true"/>
    </trip>
	<trip id="cv_47" depart="294" from="A1" to="E12" type="cv">
        <stop index="0" parkingArea="P12" duration="90" parking="true"/>
    </trip>
	<trip id="cv_48" depart="297" from="A3" to="E30" type="cv">
        <stop index="0" parkingArea="P30" duration="90" parking="true"/>
    </trip>
	<trip id="cv_49" depart="298" from="A3" to="E30" type="cv">
        <stop index="0" parkingArea="P30" duration="90" parking="true"/>
    </trip>
	<trip id="ncv_50" depart="313" from="A3" to="E30" type="ncv">
        <stop index="0" parkingArea="P30" duration="180" parking="true"/>
    </trip>
	<trip id="ncv_51" depart="329" from="A0" to="E01" type="ncv">
        <stop index="0" parkingArea="P01" duration="180" parking="true"/>
    </trip>
	<trip id="cv_52" depart="340" from="A1" to="E12" type="cv">
        <stop index="0" parkingArea="P12" duration="90" parking="true"/>
    </trip>
	<trip id="cv_53" depart="355" from="A3" to="E30" type="cv">
        <stop index="0" parkingArea="P30" duration="90" parking="true"/>
    </trip>
	<trip id="cv_54" depart="357" from="A2" to="E23" type="cv">
        <stop index="0" parkingArea="P23" duration="90" parking="true"/>
    </trip>
	<trip id="cv_55" depart="358" from="A0" to="E01" type="cv">
        <stop index="0" parkingArea="P01" duration="90" parking="true"/>
    </trip>
	<trip id="cv_56" depart="362" from="A2" to="E23" type="cv">
        <stop index="0" parkingArea="P23" duration="90" parking="true"/>
    </trip>
	<trip id="cv_57" depart="363" from="A3" to="E30" type="cv">
        <stop index="0" parkingArea="P30" duration="90" parking="true"/>
    </trip>
	<trip id="ncv_58" depart="367" from="A1" to="E12" type="ncv">
        <stop index="0" parkingArea="P12" duration="180" parking="true"/>
    </trip>
	<trip id="cv_59" depart="384" from="A1" to="E12" type="cv">
        <stop index="0" parkingArea="P12" duration="90" parking="true"/>
    </trip>
	<trip id="cv_60" depart="388" from="A1" to="E12" type="cv">
        <stop index="0" parkingArea="P12" duration="90" parking="true"/>
    </trip>
	<trip id="cv_61" depart="389" from="A1" to="E12" type="cv">
        <stop index="0" parkingArea="P12" duration="90" parking="true"/>
    </trip>
	<trip id="ncv_62" depart="390" from="A2" to="E23" type="ncv">
        <stop index="0" parkingArea="P23" duration="180" parking="true"/>
    </trip>
	<trip id="cv_63" depart="393" from="A3" to="E30" type="cv">
        <stop index="0" parkingArea="P30" duration="90" parking="true"/>
    </trip>
	<trip id="ncv_64" depart="396" from="A2" to="E23" type="ncv">
        <stop index="0" parkingArea="P23" duration="180" parking="true"/>
    </trip>
	<trip id="cv_65" depart="399" from="A2" to="E23" type="cv">
        <stop index="0" parkingArea="P23" duration="90" parking="true"/>
    </trip>
	<trip id="ncv_66" depart="407" from="A2" to="E23" type="ncv">
        <stop index="0" parkingArea="P23" duration="180" parking="true"/>
    </trip>
	<trip id="cv_67" depart="413" from="A1" to="E12" type="cv">
        <stop index="0" parkingArea="P12" duration="90" parking="true"/>
    </trip>
	<trip id="cv_68" depart="413" from="A2" to="E23" type="cv">
        <stop index="0" parkingArea="P23" duration="90" parking="true"/>
    </trip>
	<trip id="ncv_69" depart="415" from="A2" to="E23" type="ncv">
        <stop index="0" parkingArea="P23" duration="180" parking="true"/>
    </trip>
	<trip id="cv_70" depart="433" from="A2" to="E23" type="cv">
        <stop index="0" parkingArea="P23" duration="90" parking="true"/>
    </trip>
	<trip id="cv_71" depart="434" from="A2" to="E23" type="cv">
        <stop index="0" parkingArea="P23" duration="90" parking="true"/>
    </trip>
	<trip id="ncv_72" depart="435" from="A3" to="E30" type="ncv">
        <stop index="0" parkingArea="P30" duration="180" parking="true"/>
    </trip>
	<trip id="cv_73" depart="440" from="A1" to="E12" type="cv">
        <stop index="0" parkingArea="P12" duration="90" parking="true"/>
    </trip>
	<trip id="ncv_74" depart="442" from="A3" to="E30" type="ncv">
        <stop index="0" parkingArea="P30" duration="180" parking="true"/>
    </trip>
	<trip id="ncv_75" depart="446" from="A1" to="E12" type="ncv">
        <stop index="0" parkingArea="P12" duration="180" parking="true"/>
    </trip>
	<trip id="cv_76" depart="448" from="A3" to="E30" type="cv">
        <stop index="0" parkingArea="P30" duration="90" parking="true"/>
    </trip>
	<trip id="cv_77" depart="454" from="A0" to="E01" type="cv">
        <stop index="0" parkingArea="P01" duration="90" parking="true"/>
    </trip>
	<trip id="cv_78" depart="465" from="A3" to="E30" type="cv">
        <stop index="0" parkingArea="P30" duration="90" parking="true"/>
    </trip>
	<trip id="cv_79" depart="466" from="A2" to="E23" type="cv">
        <stop index="0" parkingArea="P23" duration="90" parking="true"/>
    </trip>
	<trip id="cv_80" depart="470" from="A2" to="E23" type="cv">
        <stop index="0" parkingArea="P23" duration="90" parking="true"/>
    </trip>
	<trip id="ncv_81" depart="470" from="A3" to="E30" type="ncv">
        <stop index="0" parkingArea="P30" duration="180" parking="true"/>
    </trip>
	<trip id="cv_82" depart="475" from="A1" to="E12" type="cv">
        <stop index="0" parkingArea="P12" duration="90" parking="true"/>
    </trip>
	<trip id="cv_83" depart="475" from="A2" to="E23" type="cv">
        <stop index="0" parkingArea="P23" duration="90" parking="true"/>
    </trip>
	<trip id="ncv_84" depart="477" from="A2" to="E23" type="ncv">
        <stop index="0" parkingArea="P23" duration="180" parking="true"/>
    </trip>
	<trip id="cv_85" depart="484" from="A0" to="E01" type="cv">
        <stop index="0" parkingArea="P01" duration="90" parking="true"/>
    </trip>
	<trip id="ncv_86" depart="494" from="A1" to="E12" type="ncv">
        <stop index="0" parkingArea="P12" duration="180" parking="true"/>
    </trip>
	<trip id="ncv_87" depart="505" from="A1" to="E12" type="ncv">
        <stop index="0" parkingArea="P12" duration="180" parking="true"/>
    </trip>
	<trip id="cv_88" depart="509" from="A0" to="E01" type="cv">
        <stop index="0" parkingArea="P01" duration="90" parking="true"/>
    </trip>
	<trip id="cv_89" depart="510" from="A2" to="E23" type="cv">
        <stop index="0" parkingArea="P23" duration="90" parking="true"/>
    </trip>
	<trip id="ncv_90" depart="513" from="A2" to="E23" type="ncv">
        <stop index="0" parkingArea="P23" duration="180" parking="true"/>
    </trip>
	<trip id="ncv_91" depart="513" from="A2" to="E23" type="ncv">
        <stop index="0" parkingArea="P23" duration="180" parking="true"/>
    </trip>
	<trip id="ncv_92" depart="513" from="A3" to="E30" type="ncv">
        <stop index="0" parkingArea="P30" duration="180" parking="true"/>
    </trip>
	<trip id="cv_93" depart="518" from="A0" to="E01" type="cv">
        <stop index="0" parkingArea="P01" duration="90" parking="true"/>
    </trip>
	<trip id="cv_94" depart="521" from="A2" to="E23" type="cv">
        <stop index="0" parkingArea="P23" duration="90" parking="true"/>
    </trip>
	<trip id="ncv_95" depart="527" from="A1" to="E12" type="ncv">
        <stop index="0" parkingArea="P12" duration="180" parking="true"/>
    </trip>
	<trip id="cv_96" depart="527" from="A2" to="E23" type="cv">
        <stop index="0" parkingArea="P23" duration="90" parking="true"/>
    </trip>
	<trip id="ncv_97" depart="537" from="A2" to="E23" type="ncv">
        <stop index="0" parkingArea="P23" duration="180" parking="true"/>
    </trip>
	<trip id="cv_98" depart="541" from="A2" to="E23" type="cv">
        <stop index="0" parkingArea="P23" duration="90" parking="true"/>
    </trip>
	<trip id="cv_99" depart="542" from="A0" to="E01" type="cv">
        <stop index="0" parkingArea="P01" duration="90" parking="true"/>
    </trip>
	<trip id="cv_100" depart="545" from="A1" to="E12" type="cv">
        <stop index="0" parkingArea="P12" duration="90" parking="true"/>
    </trip>
	<trip id="cv_101" depart="548" from="A1" to="E12" type="cv">
        <stop index="0" parkingArea="P12" duration="90" parking="true"/>
    </trip>
	<trip id="cv_102" depart="556" from="A2" to="E23" type="cv">
        <stop index="0" parkingArea="P23" duration="90" parking="true"/>
    </trip>
	<trip id="cv_103" depart="566" from="A2" to="E23" type="cv">
        <stop index="0" parkingArea="P23" duration="90" parking="true"/>
    </trip>
	<trip id="cv_104" depart="567" from="A1" to="E12" type="cv">
        <stop index="0" parkingArea="P12" duration="90" parking="true"/>
    </trip>
	<trip id="cv_105" depart="568" from="A2" to="E23" type="cv">
        <stop index="0" parkingArea="P23" duration="90" parking="true"/>
    </trip>
	<trip id="cv_106" depart="569" from="A2" to="E23" type="cv">
        <stop index="0" parkingArea="P23" duration="90" parking="true"/>
    </trip>
	<trip id="cv_107" depart="571" from="A2" to="E23" type="cv">
        <stop index="0" parkingArea="P23" duration="90" parking="true"/>
    </trip>
	<trip id="cv_108" depart="573" from="A2" to="E23" type="cv">
        <stop index="0" parkingArea="P23" duration="90" parking="true"/>
    </trip>
	<trip id="cv_109" depart="582" from="A0" to="E01" type="cv">
        <stop index="0" parkingArea="P01" duration="90" parking="true"/>
    </trip>
	<trip id="ncv_110" depart="583" from="A3" to="E30" type="ncv">
        <stop index="0" parkingArea="P30" duration="180" parking="true"/>
    </trip>
	<trip id="ncv_111" depart="588" from="A3" to="E30" type="ncv">
        <stop index="0" parkingArea="P30" duration="180" parking="true"/>
    </trip>
	<trip id="cv_112" depart="595" from="A0" to="E01" type="cv">
        <stop index="0" parkingArea="P01" duration="90" parking="true"/>
    </trip>
	<trip id="cv_113" depart="604" from="A3" to="E30" type="cv">
        <stop index="0" parkingArea="P30" duration="90" parking="true"/>
    </trip>
	<trip id="cv_114" depart="612" from="A2" to="E23" type="cv">
        <stop index="0" parkingArea="P23" duration="90" parking="true"/>
    </trip>
	<trip id="cv_115" depart="612" from="A3" to="E30" type="cv">
        <stop index="0" parkingArea="P30" duration="90" parking="true"/>
    </trip>
	<trip id="cv_116" depart="614" from="A1" to="E12" type="cv">
        <stop index="0" parkingArea="P12" duration="90" parking="true"/>
    </trip>
	<trip id="cv_117" depart="617" from="A3" to="E30" type="cv">
        <stop index="0" parkingArea="P30" duration="90" parking="true"/>
    </trip>
	<trip id="ncv_118" depart="617" from="A3" to="E30" type="ncv">
        <stop index="0" parkingArea="P30" duration="180" parking="true"/>
    </trip>
	<trip id="ncv_119" depart="629" from="A0" to="E01" type="ncv">
        <stop index="0" parkingArea="P01" duration="180" parking="true"/>
    </trip>
	<trip id="cv_120" depart="634" from="A1" to="E12" type="cv">
        <stop index="0" parkingArea="P12" duration="90" parking="true"/>
    </trip>
	<trip id="ncv_121" depart="644" from="A1" to="E12" type="ncv">
        <stop index="0" parkingArea="P12" duration="180" parking="true"/>
    </trip>
	<trip id="cv_122" depart="650" from="A0" to="E01" type="cv">
        <stop index="0" parkingArea="P01" duration="90" parking="true"/>
    </trip>
	<trip id="ncv_123" depart="653" from="A1" to="E12" type="ncv">
        <stop index="0" parkingArea="P12" duration="180" parking="true"/>
    </trip>
	<trip id="cv_124" depart="654" from="A2" to="E23" type="cv">
        <stop index="0" parkingArea="P23" duration="90" parking="true"/>
    </trip>
	<trip id="cv_125" depart="666" from="A3" to="E30" type="cv">
        <stop index="0" parkingArea="P30" duration="90" parking="true"/>
    </trip>
	<trip id="cv_126" depart="667" from="A3" to="E30" type="cv">
        <stop index="0" parkingArea="P30" duration="90" parking="true"/>
    </trip>
	<trip id="ncv_127" depart="669" from="A3" to="E30" type="ncv">
        <stop index="0" parkingArea="P30" duration="180" parking="true"/>
    </trip>
	<trip id="ncv_128" depart="679" from="A2" to="E23" type="ncv">
        <stop index="0" parkingArea="P23" duration="180" parking="true"/>
    </trip>
	<trip id="cv_129" depart="680" from="A3" to="E30" type="cv">
        <stop index="0" parkingArea="P30" duration="90" parking="true"/>
    </trip>
	<trip id="cv_130" depart="699" from="A1" to="E12" type="cv">
        <stop index="0" parkingArea="P12" duration="90" parking="true"/>
    </trip>
	<trip id="cv_131" depart="703" from="A2" to="E23" type="cv">
        <stop index="0" parkingArea="P23" duration="90" parking="true"/>
    </trip>
	<trip id="ncv_132" depart="712" from="A2" to="E23" type="ncv">
        <stop index="0" parkingArea="P23" duration="180" parking="true"/>
    </trip>
	<trip id="ncv_133" depart="731" from="A2" to="E23" type="ncv">
        <stop index="0" parkingArea="P23" duration="180" parking="true"/>
    </trip>
	<trip id="ncv_134" depart="738" from="A3" to="E30" type="ncv">
        <stop index="0" parkingArea="P30" duration="180" parking="true"/>
    </trip>
	<trip id="ncv_135" depart="742" from="A1" to="E12" type="ncv">
        <stop index="0" parkingArea="P12" duration="180" parking="true"/>
    </trip>
	<trip id="cv_136" depart="746" from="A3" to="E30" type="cv">
        <stop index="0" parkingArea="P30" duration="90" parking="true"/>
    </trip>
	<trip id="cv_137" depart="748" from="A1" to="E12" type="cv">
        <stop index="0" parkingArea="P12" duration="90" parking="true"/>
    </trip>
	<trip id="cv_138" depart="751" from="A2" to="E23" type="cv">
        <stop index="0" parkingArea="P23" duration="90" parking="true"/>
    </trip>
	<trip id="cv_139" depart="753" from="A1" to="E12" type="cv">
        <stop index="0" parkingArea="P12" duration="90" parking="true"/>
    </trip>
	<trip id="cv_140" depart="753" from="A3" to="E30" type="cv">
        <stop index="0" parkingArea="P30" duration="90" parking="true"/>
    </trip>
	<trip id="cv_141" depart="756" from="A1" to="E12" type="cv">
        <stop index="0" parkingArea="P12" duration="90" parking="true"/>
    </trip>
	<trip id="cv_142" depart="763" from="A2" to="E23" type="cv">
        <stop index="0" parkingArea="P23" duration="90" parking="true"/>
    </trip>
	<trip id="cv_143" depart="770" from="A0" to="E01" type="cv">
        <stop index="0" parkingArea="P01" duration="90" parking="true"/>
    </trip>
	<trip id="ncv_144" depart="774" from="A3" to="E30" type="ncv">
        <stop index="0" parkingArea="P30" duration="180" parking="true"/>
    </trip>
	<trip id="ncv_145" depart="775" from="A3" to="E30" type="ncv">
        <stop index="0" parkingArea="P30" duration="180" parking="true"/>
    </trip>
	<trip id="cv_146" depart="776" from="A3" to="E30" type="cv">
        <stop index="0" parkingArea="P30" duration="90" parking="true"/>
    </trip>
	<trip id="ncv_147" depart="782" from="A1" to="E12" type="ncv">
        <stop index="0" parkingArea="P12" duration="180" parking="true"/>
    </trip>
	<trip id="cv_148" depart="785" from="A1" to="E12" type="cv">
        <stop index="0" parkingArea="P12" duration="90" parking="true"/>
    </trip>
	<trip id="cv_149" depart="785" from="A2" to="E23" type="cv">
        <stop index="0" parkingArea="P23" duration="90" parking="true"/>
    </trip>
	<trip id="cv_150" depart="788" from="A1" to="E12" type="cv">
        <stop index="0" parkingArea="P12" duration="90" parking="true"/>
    </trip>
	<trip id="ncv_151" depart="790" from="A0" to="E01" type="ncv">
        <stop index="0" parkingArea="P01" duration="180" parking="true"/>
    </trip>
	<trip id="ncv_152" depart="795" from="A1" to="E12" type="ncv">
        <stop index="0" parkingArea="P12" duration="180" parking="true"/>
    </trip>
	<trip id="cv_153" depart="797" from="A0" to="E01" type="cv">
        <stop index="0" parkingArea="P01" duration="90" parking="true"/>
    </trip>
	<trip id="cv_154" depart="802" from="A1" to="E12" type="cv">
        <stop index="0" parkingArea="P12" duration="90" parking="true"/>
    </trip>
	<trip id="cv_155" depart="802" from="A3" to="E30" type="cv">
        <stop index="0" parkingArea="P30" duration="90" parking="true"/>
    </trip>
	<trip id="cv_156" depart="805" from="A3" to="E30" type="cv">
        <stop index="0" parkingArea="P30" duration="90" parking="true"/>
    </trip>
	<trip id="cv_157" depart="808" from="A0" to="E01" type="cv">
        <stop index="0" parkingArea="P01" duration="90" parking="true"/>
    </trip>
	<trip id="ncv_158" depart="809" from="A2" to="E23" type="ncv">
        <stop index="0" parkingArea="P23" duration="180" parking="true"/>
    </trip>
	<trip id="ncv_159" depart="822" from="A3" to="E30" type="ncv">
        <stop index="0" parkingArea="P30" duration="180" parking="true"/>
    </trip>
	<trip id="ncv_160" depart="825" from="A0" to="E01" type="ncv">
        <stop index="0" parkingArea="P01" duration="180" parking="true"/>
    </trip>
	<trip id="cv_161" depart="827" from="A3" to="E30" type="cv">
        <stop index="0" parkingArea="P30" duration="90" parking="true"/>
    </trip>
	<trip id="cv_162" depart="829" from="A3" to="E30" type="cv">
        <stop index="0" parkingArea="P30" duration="90" parking="true"/>
    </trip>
	<trip id="ncv_163" depart="835" from="A2" to="E23" type="ncv">
        <stop index="0" parkingArea="P23" duration="180" parking="true"/>
    </trip>
	<trip id="ncv_164" depart="840" from="A0" to="E01" type="ncv">
        <stop index="0" parkingArea="P01" duration="180" parking="true"/>
    </trip>
	<trip id="cv_165" depart="850" from="A2" to="E23" type="cv">
        <stop index="0" parkingArea="P23" duration="90" parking="true"/>
    </trip>
	<trip id="cv_166" depart="856" from="A1" to="E12" type="cv">
        <stop index="0" parkingArea="P12" duration="90" parking="true"/>
    </trip>
	<trip id="cv_167" depart="861" from="A0" to="E01" type="cv">
        <stop index="0" parkingArea="P01" duration="90" parking="true"/>
    </trip>
	<trip id="ncv_168" depart="865" from="A2" to="E23" type="ncv">
        <stop index="0" parkingArea="P23" duration="180" parking="true"/>
    </trip>
	<trip id="cv_169" depart="869" from="A2" to="E23" type="cv">
        <stop index="0" parkingArea="P23" duration="90" parking="true"/>
    </trip>
	<trip id="cv_170" depart="870" from="A1" to="E12" type="cv">
        <stop index="0" parkingArea="P12" duration="90" parking="true"/>
    </trip>
	<trip id="cv_171" depart="877" from="A0" to="E01" type="cv">
        <stop index="0" parkingArea="P01" duration="90" parking="true"/>
    </trip>
	<trip id="ncv_172" depart="895" from="A1" to="E12" type="ncv">
        <stop index="0" parkingArea="P12" duration="180" parking="true"/>
    </trip>
	<trip id="cv_173" depart="915" from="A2" to="E23" type="cv">
        <stop index="0" parkingArea="P23" duration="90" parking="true"/>
    </trip>
	<trip id="ncv_174" depart="917" from="A0" to="E01" type="ncv">
        <stop index="0" parkingArea="P01" duration="180" parking="true"/>
    </trip>
	<trip id="ncv_175" depart="918" from="A0" to="E01" type="ncv">
        <stop index="0" parkingArea="P01" duration="180" parking="true"/>
    </trip>
	<trip id="ncv_176" depart="920" from="A1" to="E12" type="ncv">
        <stop index="0" parkingArea="P12" duration="180" parking="true"/>
    </trip>
	<trip id="ncv_177" depart="922" from="A1" to="E12" type="ncv">
        <stop index="0" parkingArea="P12" duration="180" parking="true"/>
    </trip>
	<trip id="cv_178" depart="934" from="A3" to="E30" type="cv">
        <stop index="0" parkingArea="P30" duration="90" parking="true"/>
    </trip>
	<trip id="ncv_179" depart="941" from="A0" to="E01" type="ncv">
        <stop index="0" parkingArea="P01" duration="180" parking="true"/>
    </trip>
	<trip id="cv_180" depart="941" from="A3" to="E30" type="cv">
        <stop index="0" parkingArea="P30" duration="90" parking="true"/>
    </trip>
	<trip id="ncv_181" depart="942" from="A1" to="E12" type="ncv">
        <stop index="0" parkingArea="P12" duration="180" parking="true"/>
    </trip>
	<trip id="cv_182" depart="946" from="A3" to="E30" type="cv">
        <stop index="0" parkingArea="P30" duration="90" parking="true"/>
    </trip>
	<trip id="cv_183" depart="950" from="A2" to="E23" type="cv">
        <stop index="0" parkingArea="P23" duration="90" parking="true"/>
    </trip>
	<trip id="cv_184" depart="951" from="A2" to="E23" type="cv">
        <stop index="0" parkingArea="P23" duration="90" parking="true"/>
    </trip>
	<trip id="cv_185" depart="956" from="A1" to="E12" type="cv">
        <stop index="0" parkingArea="P12" duration="90" parking="true"/>
    </trip>
	<trip id="cv_186" depart="959" from="A0" to="E01" type="cv">
        <stop index="0" parkingArea="P01" duration="90" parking="true"/>
    </trip>
	<trip id="cv_187" depart="968" from="A1" to="E12" type="cv">
        <stop index="0" parkingArea="P12" duration="90" parking="true"/>
    </trip>
	<trip id="ncv_188" depart="968" from="A3" to="E30" type="ncv">
        <stop index="0" parkingArea="P30" duration="180" parking="true"/>
    </trip>
	<trip id="ncv_189" depart="972" from="A1" to="E12" type="ncv">
        <stop index="0" parkingArea="P12" duration="180" parking="true"/>
    </trip>
	<trip id="ncv_190" depart="972" from="A1" to="E12" type="ncv">
        <stop index="0" parkingArea="P12" duration="180" parking="true"/>
    </trip>
	<trip id="cv_191" depart="981" from="A2" to="E23" type="cv">
        <stop index="0" parkingArea="P23" duration="90" parking="true"/>
    </trip>
	<trip id="cv_192" depart="987" from="A0" to="E01" type="cv">
        <stop index="0" parkingArea="P01" duration="90" parking="true"/>
    </trip>
	<trip id="cv_193" depart="991" from="A1" to="E12" type="cv">
        <stop index="0" parkingArea="P12" duration="90" parking="true"/>
    </trip>
	<trip id="ncv_194" depart="991" from="A3" to="E30" type="ncv">
        <stop index="0" parkingArea="P30" duration="180" parking="true"/>
    </trip>
	<trip id="cv_195" depart="996" from="A0" to="E01" type="cv">
        <stop index="0" parkingArea="P01" duration="90" parking="true"/>
    </trip>
	<trip id="cv_196" depart="998" from="A3" to="E30" type="cv">
        <stop index="0" parkingArea="P30" duration="90" parking="true"/>
    </trip>
	<trip id="ncv_197" depart="1001" from="A2" to="E23" type="ncv">
        <stop index="0" parkingArea="P23" duration="180" parking="true"/>