<?xml version="1.0" encoding="UTF-8"?>
              <routes xmlns:xsi="http://www.w3.org/2001/XMLSchema-instance" xsi:noNamespaceSchemaLocation="http://sumo.dlr.de/xsd/routes_file.xsd">
              
	<vType id="ncv" vClass="passenger" guiShape="passenger/sedan" color="255,183,59"></vType>

    <vType id="f" vClass="passenger" guiShape="passenger/hatchback" color="192,192,192"></vType>

    <vType id="cv" vClass="passenger" guiShape="evehicle" color="245,39,224"></vType>
          
	<flow id="back_0" begin="0" end="3700" number="240" from="A0" to="E30" type="f"/>
	<flow id="back_1" begin="0" end="3700" number="240" from="A1" to="E01" type="f"/>
	<flow id="back_2" begin="0" end="3700" number="240" from="A2" to="E12" type="f"/>
	<flow id="back_3" begin="0" end="3700" number="240" from="A3" to="E23" type="f"/>
	<trip id="ncv_0" depart="100" from="A1" to="E12" type="ncv">
        <stop index="0" parkingArea="P12" duration="120" parking="true"/>
    </trip>
	<trip id="ncv_1" depart="100" from="A2" to="E23" type="ncv">
        <stop index="0" parkingArea="P23" duration="120" parking="true"/>
    </trip>
	<trip id="cv_2" depart="104" from="A0" to="E01" type="cv">
        <stop index="0" parkingArea="P01" duration="60" parking="true"/>
    </trip>
	<trip id="cv_3" depart="106" from="A1" to="E12" type="cv">
        <stop index="0" parkingArea="P12" duration="60" parking="true"/>
    </trip>
	<trip id="ncv_4" depart="109" from="A1" to="E12" type="ncv">
        <stop index="0" parkingArea="P12" duration="120" parking="true"/>
    </trip>
	<trip id="ncv_5" depart="113" from="A1" to="E12" type="ncv">
        <stop index="0" parkingArea="P12" duration="120" parking="true"/>
    </trip>
	<trip id="ncv_6" depart="113" from="A3" to="E30" type="ncv">
        <stop index="0" parkingArea="P30" duration="120" parking="true"/>
    </trip>
	<trip id="ncv_7" depart="129" from="A3" to="E30" type="ncv">
        <stop index="0" parkingArea="P30" duration="120" parking="true"/>
    </trip>
	<trip id="cv_8" depart="132" from="A2" to="E23" type="cv">
        <stop index="0" parkingArea="P23" duration="60" parking="true"/>
    </trip>
	<trip id="ncv_9" depart="136" from="A1" to="E12" type="ncv">
        <stop index="0" parkingArea="P12" duration="120" parking="true"/>
    </trip>
	<trip id="ncv_10" depart="139" from="A2" to="E23" type="ncv">
        <stop index="0" parkingArea="P23" duration="120" parking="true"/>
    </trip>
	<trip id="ncv_11" depart="140" from="A3" to="E30" type="ncv">
        <stop index="0" parkingArea="P30" duration="120" parking="true"/>
    </trip>
	<trip id="cv_12" depart="150" from="A1" to="E12" type="cv">
        <stop index="0" parkingArea="P12" duration="60" parking="true"/>
    </trip>
	<trip id="cv_13" depart="154" from="A1" to="E12" type="cv">
        <stop index="0" parkingArea="P12" duration="60" parking="true"/>
    </trip>
	<trip id="cv_14" depart="157" from="A0" to="E01" type="cv">
        <stop index="0" parkingArea="P01" duration="60" parking="true"/>
    </trip>
	<trip id="ncv_15" depart="158" from="A1" to="E12" type="ncv">
        <stop index="0" parkingArea="P12" duration="120" parking="true"/>
    </trip>
	<trip id="ncv_16" depart="160" from="A1" to="E12" type="ncv">
        <stop index="0" parkingArea="P12" duration="120" parking="true"/>
    </trip>
	<trip id="ncv_17" depart="162" from="A2" to="E23" type="ncv">
        <stop index="0" parkingArea="P23" duration="120" parking="true"/>
    </trip>
	<trip id="ncv_18" depart="166" from="A0" to="E01" type="ncv">
        <stop index="0" parkingArea="P01" duration="120" parking="true"/>
    </trip>
	<trip id="ncv_19" depart="176" from="A1" to="E12" type="ncv">
        <stop index="0" parkingArea="P12" duration="120" parking="true"/>
    </trip>
	<trip id="cv_20" depart="182" from="A3" to="E30" type="cv">
        <stop index="0" parkingArea="P30" duration="60" parking="true"/>
    </trip>
	<trip id="ncv_21" depart="183" from="A2" to="E23" type="ncv">
        <stop index="0" parkingArea="P23" duration="120" parking="true"/>
    </trip>
	<trip id="ncv_22" depart="184" from="A3" to="E30" type="ncv">
        <stop index="0" parkingArea="P30" duration="120" parking="true"/>
    </trip>
	<trip id="ncv_23" depart="188" from="A0" to="E01" type="ncv">
        <stop index="0" parkingArea="P01" duration="120" parking="true"/>
    </trip>
	<trip id="ncv_24" depart="189" from="A1" to="E12" type="ncv">
        <stop index="0" parkingArea="P12" duration="120" parking="true"/>
    </trip>
	<trip id="ncv_25" depart="193" from="A0" to="E01" type="ncv">
        <stop index="0" parkingArea="P01" duration="120" parking="true"/>
    </trip>
	<trip id="ncv_26" depart="200" from="A3" to="E30" type="ncv">
        <stop index="0" parkingArea="P30" duration="120" parking="true"/>
    </trip>
	<trip id="ncv_27" depart="209" from="A0" to="E01" type="ncv">
        <stop index="0" parkingArea="P01" duration="120" parking="true"/>
    </trip>
	<trip id="cv_28" depart="209" from="A3" to="E30" type="cv">
        <stop index="0" parkingArea="P30" duration="60" parking="true"/>
    </trip>
	<trip id="cv_29" depart="213" from="A2" to="E23" type="cv">
        <stop index="0" parkingArea="P23" duration="60" parking="true"/>
    </trip>
	<trip id="ncv_30" depart="214" from="A3" to="E30" type="ncv">
        <stop index="0" parkingArea="P30" duration="120" parking="true"/>
    </trip>
	<trip id="ncv_31" depart="220" from="A3" to="E30" type="ncv">
        <stop index="0" parkingArea="P30" duration="120" parking="true"/>
    </trip>
	<trip id="ncv_32" depart="223" from="A3" to="E30" type="ncv">
        <stop index="0" parkingArea="P30" duration="120" parking="true"/>
    </trip>
	<trip id="ncv_33" depart="225" from="A3" to="E30" type="ncv">
        <stop index="0" parkingArea="P30" duration="120" parking="true"/>
    </trip>
	<trip id="cv_34" depart="229" from="A1" to="E12" type="cv">
        <stop index="0" parkingArea="P12" duration="60" parking="true"/>
    </trip>
	<trip id="cv_35" depart="232" from="A3" to="E30" type="cv">
        <stop index="0" parkingArea="P30" duration="60" parking="true"/>
    </trip>
	<trip id="ncv_36" depart="235" from="A0" to="E01" type="ncv">
        <stop index="0" parkingArea="P01" duration="120" parking="true"/>
    </trip>
	<trip id="ncv_37" depart="237" from="A2" to="E23" type="ncv">
        <stop index="0" parkingArea="P23" duration="120" parking="true"/>
    </trip>
	<trip id="cv_38" depart="244" from="A3" to="E30" type="cv">
        <stop index="0" parkingArea="P30" duration="60" parking="true"/>
    </trip>
	<trip id="ncv_39" depart="245" from="A2" to="E23" type="ncv">
        <stop index="0" parkingArea="P23" duration="120" parking="true"/>
    </trip>
	<trip id="ncv_40" depart="246" from="A1" to="E12" type="ncv">
        <stop index="0" parkingArea="P12" duration="120" parking="true"/>
    </trip>
	<trip id="cv_41" depart="247" from="A3" to="E30" type="cv">
        <stop index="0" parkingArea="P30" duration="60" parking="true"/>
    </trip>
	<trip id="ncv_42" depart="249" from="A0" to="E01" type="ncv">
        <stop index="0" parkingArea="P01" duration="120" parking="true"/>
    </trip>
	<trip id="cv_43" depart="254" from="A2" to="E23" type="cv">
        <stop index="0" parkingArea="P23" duration="60" parking="true"/>
    </trip>
	<trip id="cv_44" depart="256" from="A3" to="E30" type="cv">
        <stop index="0" parkingArea="P30" duration="60" parking="true"/>
    </trip>
	<trip id="ncv_45" depart="258" from="A0" to="E01" type="ncv">
        <stop index="0" parkingArea="P01" duration="120" parking="true"/>
    </trip>
	<trip id="ncv_46" depart="259" from="A1" to="E12" type="ncv">
        <stop index="0" parkingArea="P12" duration="120" parking="true"/>
    </trip>
	<trip id="cv_47" depart="261" from="A1" to="E12" type="cv">
        <stop index="0" parkingArea="P12" duration="60" parking="true"/>
    </trip>
	<trip id="ncv_48" depart="261" from="A2" to="E23" type="ncv">
        <stop index="0" parkingArea="P23" duration="120" parking="true"/>
    </trip>
	<trip id="cv_49" depart="263" from="A3" to="E30" type="cv">
        <stop index="0" parkingArea="P30" duration="60" parking="true"/>
    </trip>
	<trip id="cv_50" depart="265" from="A0" to="E01" type="cv">
        <stop index="0" parkingArea="P01" duration="60" parking="true"/>
    </trip>
	<trip id="ncv_51" depart="266" from="A1" to="E12" type="ncv">
        <stop index="0" parkingArea="P12" duration="120" parking="true"/>
    </trip>
	<trip id="ncv_52" depart="266" from="A2" to="E23" type="ncv">
        <stop index="0" parkingArea="P23" duration="120" parking="true"/>
    </trip>
	<trip id="cv_53" depart="268" from="A2" to="E23" type="cv">
        <stop index="0" parkingArea="P23" duration="60" parking="true"/>
    </trip>
	<trip id="ncv_54" depart="272" from="A1" to="E12" type="ncv">
        <stop index="0" parkingArea="P12" duration="120" parking="true"/>
    </trip>
	<trip id="cv_55" depart="272" from="A2" to="E23" type="cv">
        <stop index="0" parkingArea="P23" duration="60" parking="true"/>
    </trip>
	<trip id="ncv_56" depart="273" from="A1" to="E12" type="ncv">
        <stop index="0" parkingArea="P12" duration="120" parking="true"/>
    </trip>
	<trip id="cv_57" depart="282" from="A3" to="E30" type="cv">
        <stop index="0" parkingArea="P30" duration="60" parking="true"/>
    </trip>
	<trip id="ncv_58" depart="285" from="A0" to="E01" type="ncv">
        <stop index="0" parkingArea="P01" duration="120" parking="true"/>
    </trip>
	<trip id="cv_59" depart="287" from="A1" to="E12" type="cv">
        <stop index="0" parkingArea="P12" duration="60" parking="true"/>
    </trip>
	<trip id="ncv_60" depart="289" from="A3" to="E30" type="ncv">
        <stop index="0" parkingArea="P30" duration="120" parking="true"/>
    </trip>
	<trip id="cv_61" depart="291" from="A1" to="E12" type="cv">
        <stop index="0" parkingArea="P12" duration="60" parking="true"/>
    </trip>
	<trip id="cv_62" depart="292" from="A3" to="E30" type="cv">
        <stop index="0" parkingArea="P30" duration="60" parking="true"/>
    </trip>
	<trip id="cv_63" depart="297" from="A2" to="E23" type="cv">
        <stop index="0" parkingArea="P23" duration="60" parking="true"/>
    </trip>
	<trip id="ncv_64" depart="304" from="A1" to="E12" type="ncv">
        <stop index="0" parkingArea="P12" duration="120" parking="true"/>
    </trip>
	<trip id="cv_65" depart="327" from="A3" to="E30" type="cv">
        <stop index="0" parkingArea="P30" duration="60" parking="true"/>
    </trip>
	<trip id="cv_66" depart="337" from="A1" to="E12" type="cv">
        <stop index="0" parkingArea="P12" duration="60" parking="true"/>
    </trip>
	<trip id="cv_67" depart="346" from="A3" to="E30" type="cv">
        <stop index="0" parkingArea="P30" duration="60" parking="true"/>
    </trip>
	<trip id="ncv_68" depart="350" from="A0" to="E01" type="ncv">
        <stop index="0" parkingArea="P01" duration="120" parking="true"/>
    </trip>
	<trip id="cv_69" depart="350" from="A1" to="E12" type="cv">
        <stop index="0" parkingArea="P12" duration="60" parking="true"/>
    </trip>
	<trip id="cv_70" depart="350" from="A2" to="E23" type="cv">
        <stop index="0" parkingArea="P23" duration="60" parking="true"/>
    </trip>
	<trip id="ncv_71" depart="354" from="A0" to="E01" type="ncv">
        <stop index="0" parkingArea="P01" duration="120" parking="true"/>
    </trip>
	<trip id="cv_72" depart="355" from="A0" to="E01" type="cv">
        <stop index="0" parkingArea="P01" duration="60" parking="true"/>
    </trip>
	<trip id="cv_73" depart="355" from="A3" to="E30" type="cv">
        <stop index="0" parkingArea="P30" duration="60" parking="true"/>
    </trip>
	<trip id="cv_74" depart="357" from="A0" to="E01" type="cv">
        <stop index="0" parkingArea="P01" duration="60" parking="true"/>
    </trip>
	<trip id="ncv_75" depart="357" from="A3" to="E30" type="ncv">
        <stop index="0" parkingArea="P30" duration="120" parking="true"/>
    </trip>
	<trip id="cv_76" depart="361" from="A1" to="E12" type="cv">
        <stop index="0" parkingArea="P12" duration="60" parking="true"/>
    </trip>
	<trip id="cv_77" depart="361" from="A2" to="E23" type="cv">
        <stop index="0" parkingArea="P23" duration="60" parking="true"/>
    </trip>
	<trip id="ncv_78" depart="368" from="A2" to="E23" type="ncv">
        <stop index="0" parkingArea="P23" duration="120" parking="true"/>
    </trip>
	<trip id="cv_79" depart="369" from="A2" to="E23" type="cv">
        <stop index="0" parkingArea="P23" duration="60" parking="true"/>
    </trip>
	<trip id="ncv_80" depart="371" from="A2" to="E23" type="ncv">
        <stop index="0" parkingArea="P23" duration="120" parking="true"/>
    </trip>
	<trip id="ncv_81" depart="371" from="A2" to="E23" type="ncv">
        <stop index="0" parkingArea="P23" duration="120" parking="true"/>
    </trip>
	<trip id="ncv_82" depart="382" from="A0" to="E01" type="ncv">
        <stop index="0" parkingArea="P01" duration="120" parking="true"/>
    </trip>
	<trip id="ncv_83" depart="386" from="A0" to="E01" type="ncv">
        <stop index="0" parkingArea="P01" duration="120" parking="true"/>
    </trip>
	<trip id="ncv_84" depart="388" from="A3" to="E30" type="ncv">
        <stop index="0" parkingArea="P30" duration="120" parking="true"/>
    </trip>
	<trip id="ncv_85" depart="388" from="A3" to="E30" type="ncv">
        <stop index="0" parkingArea="P30" duration="120" parking="true"/>
    </trip>
	<trip id="cv_86" depart="390" from="A2" to="E23" type="cv">
        <stop index="0" parkingArea="P23" duration="60" parking="true"/>
    </trip>
	<trip id="ncv_87" depart="394" from="A0" to="E01" type="ncv">
        <stop index="0" parkingArea="P01" duration="120" parking="true"/>
    </trip>
	<trip id="ncv_88" depart="399" from="A3" to="E30" type="ncv">
        <stop index="0" parkingArea="P30" duration="120" parking="true"/>
    </trip>
	<trip id="cv_89" depart="402" from="A0" to="E01" type="cv">
        <stop index="0" parkingArea="P01" duration="60" parking="true"/>
    </trip>
	<trip id="ncv_90" depart="403" from="A0" to="E01" type="ncv">
        <stop index="0" parkingArea="P01" duration="120" parking="true"/>
    </trip>
	<trip id="cv_91" depart="408" from="A3" to="E30" type="cv">
        <stop index="0" parkingArea="P30" duration="60" parking="true"/>
    </trip>
	<trip id="ncv_92" depart="412" from="A2" to="E23" type="ncv">
        <stop index="0" parkingArea="P23" duration="120" parking="true"/>
    </trip>
	<trip id="ncv_93" depart="419" from="A3" to="E30" type="ncv">
        <stop index="0" parkingArea="P30" duration="120" parking="true"/>
    </trip>
	<trip id="ncv_94" depart="421" from="A3" to="E30" type="ncv">
        <stop index="0" parkingArea="P30" duration="120" parking="true"/>
    </trip>
	<trip id="cv_95" depart="423" from="A1" to="E12" type="cv">
        <stop index="0" parkingArea="P12" duration="60" parking="true"/>
    </trip>
	<trip id="ncv_96" depart="428" from="A0" to="E01" type="ncv">
        <stop index="0" parkingArea="P01" duration="120" parking="true"/>
    </trip>
	<trip id="cv_97" depart="429" from="A0" to="E01" type="cv">
        <stop index="0" parkingArea="P01" duration="60" parking="true"/>
    </trip>
	<trip id="cv_98" depart="430" from="A1" to="E12" type="cv">
        <stop index="0" parkingArea="P12" duration="60" parking="true"/>
    </trip>
	<trip id="ncv_99" depart="430" from="A3" to="E30" type="ncv">
        <stop index="0" parkingArea="P30" duration="120" parking="true"/>
    </trip>
	<trip id="ncv_100" depart="433" from="A1" to="E12" type="ncv">
        <stop index="0" parkingArea="P12" duration="120" parking="true"/>
    </trip>
	<trip id="cv_101" depart="434" from="A3" to="E30" type="cv">
        <stop index="0" parkingArea="P30" duration="60" parking="true"/>
    </trip>
	<trip id="ncv_102" depart="437" from="A0" to="E01" type="ncv">
        <stop index="0" parkingArea="P01" duration="120" parking="true"/>
    </trip>
	<trip id="ncv_103" depart="441" from="A1" to="E12" type="ncv">
        <stop index="0" parkingArea="P12" duration="120" parking="true"/>
    </trip>
	<trip id="cv_104" depart="442" from="A2" to="E23" type="cv">
        <stop index="0" parkingArea="P23" duration="60" parking="true"/>
    </trip>
	<trip id="ncv_105" depart="444" from="A3" to="E30" type="ncv">
        <stop index="0" parkingArea="P30" duration="120" parking="true"/>
    </trip>
	<trip id="cv_106" depart="446" from="A2" to="E23" type="cv">
        <stop index="0" parkingArea="P23" duration="60" parking="true"/>
    </trip>
	<trip id="ncv_107" depart="446" from="A2" to="E23" type="ncv">
        <stop index="0" parkingArea="P23" duration="120" parking="true"/>
    </trip>
	<trip id="cv_108" depart="456" from="A2" to="E23" type="cv">
        <stop index="0" parkingArea="P23" duration="60" parking="true"/>
    </trip>
	<trip id="ncv_109" depart="467" from="A0" to="E01" type="ncv">
        <stop index="0" parkingArea="P01" duration="120" parking="true"/>
    </trip>
	<trip id="ncv_110" depart="471" from="A2" to="E23" type="ncv">
        <stop index="0" parkingArea="P23" duration="120" parking="true"/>
    </trip>
	<trip id="cv_111" depart="473" from="A0" to="E01" type="cv">
        <stop index="0" parkingArea="P01" duration="60" parking="true"/>
    </trip>
	<trip id="ncv_112" depart="474" from="A0" to="E01" type="ncv">
        <stop index="0" parkingArea="P01" duration="120" parking="true"/>
    </trip>
	<trip id="cv_113" depart="475" from="A0" to="E01" type="cv">
        <stop index="0" parkingArea="P01" duration="60" parking="true"/>
    </trip>
	<trip id="cv_114" depart="482" from="A0" to="E01" type="cv">
        <stop index="0" parkingArea="P01" duration="60" parking="true"/>
    </trip>
	<trip id="cv_115" depart="482" from="A3" to="E30" type="cv">
        <stop index="0" parkingArea="P30" duration="60" parking="true"/>
    </trip>
	<trip id="ncv_116" depart="483" from="A1" to="E12" type="ncv">
        <stop index="0" parkingArea="P12" duration="120" parking="true"/>
    </trip>
	<trip id="cv_117" depart="488" from="A0" to="E01" type="cv">
        <stop index="0" parkingArea="P01" duration="60" parking="true"/>
    </trip>
	<trip id="ncv_118" depart="500" from="A1" to="E12" type="ncv">
        <stop index="0" parkingArea="P12" duration="120" parking="true"/>
    </trip>
	<trip id="cv_119" depart="501" from="A2" to="E23" type="cv">
        <stop index="0" parkingArea="P23" duration="60" parking="true"/>
    </trip>
	<trip id="cv_120" depart="504" from="A0" to="E01" type="cv">
        <stop index="0" parkingArea="P01" duration="60" parking="true"/>
    </trip>
	<trip id="ncv_121" depart="506" from="A3" to="E30" type="ncv">
        <stop index="0" parkingArea="P30" duration="120" parking="true"/>
    </trip>
	<trip id="cv_122" depart="507" from="A2" to="E23" type="cv">
        <stop index="0" parkingArea="P23" duration="60" parking="true"/>
    </trip>
	<trip id="ncv_123" depart="510" from="A1" to="E12" type="ncv">
        <stop index="0" parkingArea="P12" duration="120" parking="true"/>
    </trip>
	<trip id="cv_124" depart="512" from="A0" to="E01" type="cv">
        <stop index="0" parkingArea="P01" duration="60" parking="true"/>
    </trip>
	<trip id="ncv_125" depart="512" from="A0" to="E01" type="ncv">
        <stop index="0" parkingArea="P01" duration="120" parking="true"/>
    </trip>
	<trip id="cv_126" depart="513" from="A1" to="E12" type="cv">
        <stop index="0" parkingArea="P12" duration="60" parking="true"/>
    </trip>
	<trip id="ncv_127" depart="515" from="A0" to="E01" type="ncv">
        <stop index="0" parkingArea="P01" duration="120" parking="true"/>
    </trip>
	<trip id="cv_128" depart="515" from="A3" to="E30" type="cv">
        <stop index="0" parkingArea="P30" duration="60" parking="true"/>
    </trip>
	<trip id="ncv_129" depart="520" from="A3" to="E30" type="ncv">
        <stop index="0" parkingArea="P30" duration="120" parking="true"/>
    </trip>
	<trip id="cv_130" depart="528" from="A2" to="E23" type="cv">
        <stop index="0" parkingArea="P23" duration="60" parking="true"/>
    </trip>
	<trip id="ncv_131" depart="529" from="A2" to="E23" type="ncv">
        <stop index="0" parkingArea="P23" duration="120" parking="true"/>
    </trip>
	<trip id="ncv_132" depart="529" from="A3" to="E30" type="ncv">
        <stop index="0" parkingArea="P30" duration="120" parking="true"/>
    </trip>
	<trip id="cv_133" depart="531" from="A3" to="E30" type="cv">
        <stop index="0" parkingArea="P30" duration="60" parking="true"/>
    </trip>
	<trip id="cv_134" depart="545" from="A2" to="E23" type="cv">
        <stop index="0" parkingArea="P23" duration="60" parking="true"/>
    </trip>
	<trip id="cv_135" depart="546" from="A0" to="E01" type="cv">
        <stop index="0" parkingArea="P01" duration="60" parking="true"/>
    </trip>
	<trip id="cv_136" depart="554" from="A3" to="E30" type="cv">
        <stop index="0" parkingArea="P30" duration="60" parking="true"/>
    </trip>
	<trip id="ncv_137" depart="560" from="A3" to="E30" type="ncv">
        <stop index="0" parkingArea="P30" duration="120" parking="true"/>
    </trip>
	<trip id="ncv_138" depart="564" from="A3" to="E30" type="ncv">
        <stop index="0" parkingArea="P30" duration="120" parking="true"/>
    </trip>
	<trip id="cv_139" depart="570" from="A2" to="E23" type="cv">
        <stop index="0" parkingArea="P23" duration="60" parking="true"/>
    </trip>
	<trip id="ncv_140" depart="571" from="A1" to="E12" type="ncv">
        <stop index="0" parkingArea="P12" duration="120" parking="true"/>
    </trip>
	<trip id="cv_141" depart="571" from="A2" to="E23" type="cv">
        <stop index="0" parkingArea="P23" duration="60" parking="true"/>
    </trip>
	<trip id="ncv_142" depart="572" from="A0" to="E01" type="ncv">
        <stop index="0" parkingArea="P01" duration="120" parking="true"/>
    </trip>
	<trip id="ncv_143" depart="574" from="A1" to="E12" type="ncv">
        <stop index="0" parkingArea="P12" duration="120" parking="true"/>
    </trip>
	<trip id="ncv_144" depart="575" from="A0" to="E01" type="ncv">
        <stop index="0" parkingArea="P01" duration="120" parking="true"/>
    </trip>
	<trip id="cv_145" depart="575" from="A2" to="E23" type="cv">
        <stop index="0" parkingArea="P23" duration="60" parking="true"/>
    </trip>
	<trip id="ncv_146" depart="579" from="A0" to="E01" type="ncv">
        <stop index="0" parkingArea="P01" duration="120" parking="true"/>
    </trip>
	<trip id="cv_147" depart="580" from="A1" to="E12" type="cv">
        <stop index="0" parkingArea="P12" duration="60" parking="true"/>
    </trip>
	<trip id="ncv_148" depart="587" from="A1" to="E12" type="ncv">
        <stop index="0" parkingArea="P12" duration="120" parking="true"/>
    </trip>
	<trip id="cv_149" depart="587" from="A2" to="E23" type="cv">
        <stop index="0" parkingArea="P23" duration="60" parking="true"/>
    </trip>
	<trip id="ncv_150" depart="590" from="A0" to="E01" type="ncv">
        <stop index="0" parkingArea="P01" duration="120" parking="true"/>
    </trip>
	<trip id="cv_151" depart="597" from="A3" to="E30" type="cv">
        <stop index="0" parkingArea="P30" duration="60" parking="true"/>
    </trip>
	<trip id="ncv_152" depart="597" from="A3" to="E30" type="ncv">
        <stop index="0" parkingArea="P30" duration="120" parking="true"/>
    </trip>
	<trip id="ncv_153" depart="604" from="A3" to="E30" type="ncv">
        <stop index="0" parkingArea="P30" duration="120" parking="true"/>
    </trip>
	<trip id="ncv_154" depart="607" from="A0" to="E01" type="ncv">
        <stop index="0" parkingArea="P01" duration="120" parking="true"/>
    </trip>
	<trip id="ncv_155" depart="609" from="A0" to="E01" type="ncv">
        <stop index="0" parkingArea="P01" duration="120" parking="true"/>
    </trip>
	<trip id="cv_156" depart="609" from="A2" to="E23" type="cv">
        <stop index="0" parkingArea="P23" duration="60" parking="true"/>
    </trip>
	<trip id="cv_157" depart="609" from="A3" to="E30" type="cv">
        <stop index="0" parkingArea="P30" duration="60" parking="true"/>
    </trip>
	<trip id="cv_158" depart="611" from="A0" to="E01" type="cv">
        <stop index="0" parkingArea="P01" duration="60" parking="true"/>
    </trip>
	<trip id="ncv_159" depart="612" from="A3" to="E30" type="ncv">
        <stop index="0" parkingArea="P30" duration="120" parking="true"/>
    </trip>
	<trip id="cv_160" depart="620" from="A3" to="E30" type="cv">
        <stop index="0" parkingArea="P30" duration="60" parking="true"/>
    </trip>
	<trip id="cv_161" depart="621" from="A3" to="E30" type="cv">
        <stop index="0" parkingArea="P30" duration="60" parking="true"/>
    </trip>
	<trip id="cv_162" depart="631" from="A2" to="E23" type="cv">
        <stop index="0" parkingArea="P23" duration="60" parking="true"/>
    </trip>
	<trip id="ncv_163" depart="633" from="A0" to="E01" type="ncv">
        <stop index="0" parkingArea="P01" duration="120" parking="true"/>
    </trip>
	<trip id="ncv_164" depart="633" from="A3" to="E30" type="ncv">
        <stop index="0" parkingArea="P30" duration="120" parking="true"/>
    </trip>
	<trip id="ncv_165" depart="634" from="A1" to="E12" type="ncv">
        <stop index="0" parkingArea="P12" duration="120" parking="true"/>
    </trip>
	<trip id="ncv_166" depart="634" from="A2" to="E23" type="ncv">
        <stop index="0" parkingArea="P23" duration="120" parking="true"/>
    </trip>
	<trip id="ncv_167" depart="640" from="A3" to="E30" type="ncv">
        <stop index="0" parkingArea="P30" duration="120" parking="true"/>
    </trip>
	<trip id="ncv_168" depart="641" from="A3" to="E30" type="ncv">
        <stop index="0" parkingArea="P30" duration="120" parking="true"/>
    </trip>
	<trip id="cv_169" depart="642" from="A1" to="E12" type="cv">
        <stop index="0" parkingArea="P12" duration="60" parking="true"/>
    </trip>
	<trip id="cv_170" depart="643" from="A3" to="E30" type="cv">
        <stop index="0" parkingArea="P30" duration="60" parking="true"/>
    </trip>
	<trip id="ncv_171" depart="646" from="A1" to="E12" type="ncv">
        <stop index="0" parkingArea="P12" duration="120" parking="true"/>
    </trip>
	<trip id="cv_172" depart="652" from="A1" to="E12" type="cv">
        <stop index="0" parkingArea="P12" duration="60" parking="true"/>
    </trip>
	<trip id="ncv_173" depart="667" from="A1" to="E12" type="ncv">
        <stop index="0" parkingArea="P12" duration="120" parking="true"/>
    </trip>
	<trip id="cv_174" depart="670" from="A0" to="E01" type="cv">
        <stop index="0" parkingArea="P01" duration="60" parking="true"/>
    </trip>
	<trip id="cv_175" depart="672" from="A0" to="E01" type="cv">
        <stop index="0" parkingArea="P01" duration="60" parking="true"/>
    </trip>
	<trip id="cv_176" depart="677" from="A3" to="E30" type="cv">
        <stop index="0" parkingArea="P30" duration="60" parking="true"/>
    </trip>
	<trip id="ncv_177" depart="681" from="A3" to="E30" type="ncv">
        <stop index="0" parkingArea="P30" duration="120" parking="true"/>
    </trip>
	<trip id="cv_178" depart="683" from="A0" to="E01" type="cv">
        <stop index="0" parkingArea="P01" duration="60" parking="true"/>
    </trip>
	<trip id="ncv_179" depart="686" from="A3" to="E30" type="ncv">
        <stop index="0" parkingArea="P30" duration="120" parking="true"/>
    </trip>
	<trip id="ncv_180" depart="696" from="A3" to="E30" type="ncv">
        <stop index="0" parkingArea="P30" duration="120" parking="true"/>
    </trip>
	<trip id="ncv_181" depart="699" from="A0" to="E01" type="ncv">
        <stop index="0" parkingArea="P01" duration="120" parking="true"/>
    </trip>
	<trip id="cv_182" depart="699" from="A2" to="E23" type="cv">
        <stop index="0" parkingArea="P23" duration="60" parking="true"/>
    </trip>
	<trip id="cv_183" depart="701" from="A0" to="E01" type="cv">
        <stop index="0" parkingArea="P01" duration="60" parking="true"/>
    </trip>
	<trip id="ncv_184" depart="701" from="A3" to="E30" type="ncv">
        <stop index="0" parkingArea="P30" duration="120" parking="true"/>
    </trip>
	<trip id="ncv_185" depart="707" from="A2" to="E23" type="ncv">
        <stop index="0" parkingArea="P23" duration="120" parking="true"/>
    </trip>
	<trip id="ncv_186" depart="707" from="A2" to="E23" type="ncv">
        <stop index="0" parkingArea="P23" duration="120" parking="true"/>
    </trip>
	<trip id="ncv_187" depart="709" from="A2" to="E23" type="ncv">
        <stop index="0" parkingArea="P23" duration="120" parking="true"/>
    </trip>
	<trip id="ncv_188" depart="712" from="A0" to="E01" type="ncv">
        <stop index="0" parkingArea="P01" duration="120" parking="true"/>
    </trip>
	<trip id="cv_189" depart="712" from="A2" to="E23" type="cv">
        <stop index="0" parkingArea="P23" duration="60" parking="true"/>
    </trip>
	<trip id="ncv_190" depart="718" from="A1" to="E12" type="ncv">
        <stop index="0" parkingArea="P12" duration="120" parking="true"/>
    </trip>
	<trip id="cv_191" depart="719" from="A2" to="E23" type="cv">
        <stop index="0" parkingArea="P23" duration="60" parking="true"/>
    </trip>
	<trip id="cv_192" depart="720" from="A3" to="E30" type="cv">
        <stop index="0" parkingArea="P30" duration="60" parking="true"/>
    </trip>
	<trip id="cv_193" depart="720" from="A3" to="E30" type="cv">
        <stop index="0" parkingArea="P30" duration="60" parking="true"/>
    </trip>
	<trip id="cv_194" depart="728" from="A1" to="E12" type="cv">
        <stop index="0" parkingArea="P12" duration="60" parking="true"/>
    </trip>
	<trip id="ncv_195" depart="732" from="A1" to="E12" type="ncv">
        <stop index="0" parkingArea="P12" duration="120" parking="true"/>
    </trip>
	<trip id="cv_196" depart="737" from="A2" to="E23" type="cv">
        <stop index="0" parkingArea="P23" duration="60" parking="true"/>
    </trip>